
     RDKit          3D

 70 73  0  0  0  0  0  0  0  0999 V2000
    0.3650   -0.8840   -0.7310 N   0  0  0  0  0  0  0  0  0  0  0  0
    1.8160   -3.5890    3.5530 H   0  0  0  0  0  0  0  0  0  0  0  0
   -1.4500    2.0250   -1.7940 H   0  0  0  0  0  0  0  0  0  0  0  0
    4.5960    2.3630   -0.5740 O   0  0  0  0  0  0  0  0  0  0  0  0
   -4.3360    1.4560   -0.2310 H   0  0  0  0  0  0  0  0  0  0  0  0
    1.1530    5.3370    0.2690 H   0  0  0  0  0  0  0  0  0  0  0  0
   -0.6580   -0.7840   -1.7460 C   0  0  2  0  0  0  0  0  0  0  0  0
    0.6280   -2.7780   -2.6040 C   0  0  0  0  0  0  0  0  0  0  0  0
    2.1920   -3.2640    1.5170 C   0  0  0  0  0  0  0  0  0  0  0  0
   -2.8290    0.5920    0.8230 C   0  0  0  0  0  0  0  0  0  0  0  0
   -2.3750    0.1510    1.8270 O   0  0  0  0  0  0  0  0  0  0  0  0
    0.5200    4.5180    0.5680 C   0  0  0  0  0  0  0  0  0  0  0  0
    5.5940    3.7830    0.4110 H   0  0  0  0  0  0  0  0  0  0  0  0
   -1.4590   -2.7660   -2.1230 H   0  0  0  0  0  0  0  0  0  0  0  0
    2.2030    0.2440   -1.8290 N   0  0  0  0  0  0  0  0  0  0  0  0
    4.6630    2.7390    1.4780 H   0  0  0  0  0  0  0  0  0  0  0  0
   -0.0660    1.7850    0.8670 H   0  0  0  0  0  0  0  0  0  0  0  0
    0.3240    3.7060   -1.4350 H   0  0  0  0  0  0  0  0  0  0  0  0
    2.2200   -0.8020    2.5160 H   0  0  0  0  0  0  0  0  0  0  0  0
    2.1610   -3.0860   -1.1240 H   0  0  0  0  0  0  0  0  0  0  0  0
   -6.7600    1.3160    2.4260 H   0  0  0  0  0  0  0  0  0  0  0  0
    0.2740   -2.8960    2.2960 C   0  0  0  0  0  0  0  0  0  0  0  0
    0.8380    4.1790    1.5490 H   0  0  0  0  0  0  0  0  0  0  0  0
   -5.2070    0.4420    1.3170 C   0  0  2  0  0  0  0  0  0  0  0  0
   -0.4960    4.8760    0.6410 H   0  0  0  0  0  0  0  0  0  0  0  0
    1.5950   -0.2440   -0.7330 C   0  0  0  0  0  0  0  0  0  0  0  0
    0.8050   -4.1790   -0.9630 H   0  0  0  0  0  0  0  0  0  0  0  0
    1.3470   -2.1050   -3.0660 H   0  0  0  0  0  0  0  0  0  0  0  0
   -5.9440   -0.5070    0.3480 C   0  0  0  0  0  0  0  0  0  0  0  0
    1.7490    0.2100   -2.7220 H   0  0  0  0  0  0  0  0  0  0  0  0
   -0.6080   -2.5360   -0.0090 H   0  0  0  0  0  0  0  0  0  0  0  0
   -2.2390    2.7680   -0.3960 H   0  0  0  0  0  0  0  0  0  0  0  0
   -2.0520    0.6930   -0.3040 N   0  0  0  0  0  0  0  0  0  0  0  0
    1.5830   -0.7980    1.6220 C   0  0  0  0  0  0  0  0  0  0  0  0
   -0.5050   -3.5500    1.9220 H   0  0  0  0  0  0  0  0  0  0  0  0
    1.1170   -2.2020    1.2100 C   0  0  0  0  0  0  0  0  0  0  0  0
    0.6240    3.3600   -0.4460 C   0  0  0  0  0  0  0  0  0  0  0  0
    2.3080   -0.1700    0.4740 C   0  0  0  0  0  0  0  0  0  0  0  0
    3.1970   -2.8810    1.6590 H   0  0  0  0  0  0  0  0  0  0  0  0
   -4.8380   -0.1170    2.1800 H   0  0  0  0  0  0  0  0  0  0  0  0
    0.4220   -2.2180   -0.1610 C   0  0  2  0  0  0  0  0  0  0  0  0
   -1.0700   -1.8720   -3.5700 H   0  0  0  0  0  0  0  0  0  0  0  0
    1.4280   -3.6830    2.7020 N   0  0  0  0  0  0  0  0  0  0  0  0
   -6.0450    1.5150    1.7730 N   0  0  0  0  0  0  0  0  0  0  0  0
    5.2460    0.6080   -0.7310 H   0  0  0  0  0  0  0  0  0  0  0  0
   -5.2600   -1.2770   -0.0030 H   0  0  0  0  0  0  0  0  0  0  0  0
   -6.7740   -0.9880    0.8520 H   0  0  0  0  0  0  0  0  0  0  0  0
   -2.0340   -0.4850   -1.1400 C   0  0  0  0  0  0  0  0  0  0  0  0
    4.0320    0.5380    1.4910 H   0  0  0  0  0  0  0  0  0  0  0  0
   -0.3910    0.0520   -2.3820 H   0  0  0  0  0  0  0  0  0  0  0  0
   -2.7710   -0.3600   -1.9520 H   0  0  0  0  0  0  0  0  0  0  0  0
    3.5320    0.4560    0.5310 C   0  0  0  0  0  0  0  0  0  0  0  0
    4.2070    1.0040   -0.6230 C   0  0  1  0  0  0  0  0  0  0  0  0
   -0.2310    2.2190   -0.0670 C   0  0  0  0  0  0  0  0  0  0  0  0
   -6.2920    2.1940    1.0780 H   0  0  0  0  0  0  0  0  0  0  0  0
   -1.5350    1.9900   -0.7040 C   0  0  0  0  0  0  0  0  0  0  0  0
    0.7010   -0.2050    1.8640 H   0  0  0  0  0  0  0  0  0  0  0  0
   -6.3220    0.0420   -0.5070 H   0  0  0  0  0  0  0  0  0  0  0  0
    3.4820    0.7370   -1.8980 C   0  0  0  0  0  0  0  0  0  0  0  0
    3.9550    0.8890   -2.9810 O   0  0  0  0  0  0  0  0  0  0  0  0
   -2.3820   -1.3430   -0.5560 H   0  0  0  0  0  0  0  0  0  0  0  0
    2.2400   -4.0950    0.8280 H   0  0  0  0  0  0  0  0  0  0  0  0
    1.0790   -3.1500   -1.1950 C   0  0  0  0  0  0  0  0  0  0  0  0
    0.5850   -3.6680   -3.2270 H   0  0  0  0  0  0  0  0  0  0  0  0
    6.1850    2.1480    0.7660 H   0  0  0  0  0  0  0  0  0  0  0  0
   -4.0910    1.0480    0.6420 N   0  0  0  0  0  0  0  0  0  0  0  0
    5.2930    2.7640    0.5920 C   0  0  0  0  0  0  0  0  0  0  0  0
    1.6620    3.0290   -0.5130 H   0  0  0  0  0  0  0  0  0  0  0  0
   -0.1670   -2.2070    3.0120 H   0  0  0  0  0  0  0  0  0  0  0  0
   -0.7340   -2.0860   -2.5630 C   0  0  0  0  0  0  0  0  0  0  0  0
  7  1  1  0
 11 10  2  0
 12  6  1  0
 23 12  1  0
 25 12  1  0
 26 15  2  0
 26  1  1  0
 28  8  1  0
 29 24  1  0
 30 15  1  0
 33 10  1  0
 34 19  1  0
 35 22  1  0
 36 34  1  0
 36 22  1  0
 36  9  1  0
 37 18  1  0
 37 12  1  0
 38 34  1  0
 38 26  1  0
 39  9  1  0
 24 40  1  1
 41 36  1  0
 41 31  1  1
 41  1  1  0
 43 22  1  0
 43  9  1  0
 43  2  1  0
 44 21  1  0
 44 24  1  0
 46 29  1  0
 47 29  1  0
 48 33  1  0
 48  7  1  0
  7 50  1  6
 51 48  1  0
 52 49  1  0
 52 38  2  0
 53 52  1  0
 53 45  1  6
 53  4  1  0
 54 37  1  0
 54 17  1  0
 55 44  1  0
 56 54  1  0
 56 33  1  0
 56 32  1  0
 56  3  1  0
 57 34  1  0
 58 29  1  0
 59 53  1  0
 59 15  1  0
 60 59  2  0
 61 48  1  0
 62  9  1  0
 63 41  1  0
 63 27  1  0
 63 20  1  0
 63  8  1  0
 64  8  1  0
 66 24  1  0
 66 10  1  0
 66  5  1  0
 67 16  1  0
 67  4  1  0
 67 65  1  0
 67 13  1  0
 68 37  1  0
 69 22  1  0
 70 42  1  0
 70 14  1  0
 70  8  1  0
 70  7  1  0
M  CHG  2  15   1  54  -1
M  END
$$$$

     RDKit          3D

 70 73  0  0  0  0  0  0  0  0999 V2000
   -2.5050    0.6570   -1.4570 H   0  0  0  0  0  0  0  0  0  0  0  0
   -3.3020    2.0560    1.2460 H   0  0  0  0  0  0  0  0  0  0  0  0
    3.7530   -1.8970    2.2850 H   0  0  0  0  0  0  0  0  0  0  0  0
    3.9930   -1.5540    0.1770 C   0  0  2  0  0  0  0  0  0  0  0  0
    6.1280    0.1920   -1.6900 H   0  0  0  0  0  0  0  0  0  0  0  0
   -4.2180    0.4620    2.0510 H   0  0  0  0  0  0  0  0  0  0  0  0
   -2.2840   -0.2500    0.5240 C   0  0  0  0  0  0  0  0  0  0  0  0
    2.2450   -1.8860    1.3790 H   0  0  0  0  0  0  0  0  0  0  0  0
   -3.8450   -2.0280    2.0000 H   0  0  0  0  0  0  0  0  0  0  0  0
    4.2350   -0.7470   -2.1080 C   0  0  0  0  0  0  0  0  0  0  0  0
    7.1840   -0.3430    0.9140 H   0  0  0  0  0  0  0  0  0  0  0  0
    0.6890    2.3860    0.0050 C   0  0  0  0  0  0  0  0  0  0  0  0
   -4.2830    2.3190   -0.6710 C   0  0  0  0  0  0  0  0  0  0  0  0
   -5.0110    3.0860   -0.4010 H   0  0  0  0  0  0  0  0  0  0  0  0
   -4.2530   -1.4890    1.1460 C   0  0  0  0  0  0  0  0  0  0  0  0
   -2.9510    3.5830    0.4400 H   0  0  0  0  0  0  0  0  0  0  0  0
    1.3100    3.3650    0.0320 H   0  0  0  0  0  0  0  0  0  0  0  0
   -0.8760   -2.4690   -0.3300 H   0  0  0  0  0  0  0  0  0  0  0  0
    5.7360   -2.4550    1.0140 H   0  0  0  0  0  0  0  0  0  0  0  0
   -4.9700   -2.1260    0.6340 H   0  0  0  0  0  0  0  0  0  0  0  0
    1.2570    1.4720    1.0460 C   0  0  0  0  0  0  0  0  0  0  0  0
    2.3130    0.6990    0.6870 N   0  0  0  0  0  0  0  0  0  0  0  0
   -3.3730   -3.1170   -0.5760 H   0  0  0  0  0  0  0  0  0  0  0  0
   -3.1630   -1.2110    0.2200 N   0  0  0  0  0  0  0  0  0  0  0  0
    3.6930   -2.5040   -0.2790 H   0  0  0  0  0  0  0  0  0  0  0  0
   -6.5160    1.6190    1.1660 C   0  0  0  0  0  0  0  0  0  0  0  0
   -6.2360    1.9980    2.0860 H   0  0  0  0  0  0  0  0  0  0  0  0
   -5.0650    0.9800   -0.7140 C   0  0  0  0  0  0  0  0  0  0  0  0
    3.6490   -0.5300   -0.7890 N   0  0  0  0  0  0  0  0  0  0  0  0
    0.8790    1.4690    2.1690 O   0  0  0  0  0  0  0  0  0  0  0  0
    7.2500   -1.8790   -0.9070 H   0  0  0  0  0  0  0  0  0  0  0  0
   -0.7260    2.7690    0.3050 C   0  0  0  0  0  0  0  0  0  0  0  0
    5.7590   -0.7860   -2.0060 C   0  0  0  0  0  0  0  0  0  0  0  0
    5.8820   -0.3210    2.0630 H   0  0  0  0  0  0  0  0  0  0  0  0
    5.8470   -2.8360   -1.3680 H   0  0  0  0  0  0  0  0  0  0  0  0
   -1.7610    2.0390   -0.1270 N   0  0  0  0  0  0  0  0  0  0  0  0
   -0.8680    3.8520    0.8220 O   0  0  0  0  0  0  0  0  0  0  0  0
   -1.3440   -3.1660   -1.8940 H   0  0  0  0  0  0  0  0  0  0  0  0
    3.8560   -1.6840   -2.5010 H   0  0  0  0  0  0  0  0  0  0  0  0
    3.2170   -1.4050    1.4850 C   0  0  0  0  0  0  0  0  0  0  0  0
    2.8490    0.5270   -0.5940 C   0  0  0  0  0  0  0  0  0  0  0  0
   -4.4120    0.1920   -1.0670 H   0  0  0  0  0  0  0  0  0  0  0  0
   -5.8280    1.1220   -1.4810 H   0  0  0  0  0  0  0  0  0  0  0  0
   -1.7960    0.6440   -0.6240 C   0  0  1  0  0  0  0  0  0  0  0  0
    5.5220   -1.6110    0.3640 C   0  0  1  0  0  0  0  0  0  0  0  0
    5.7270    0.5560    0.5380 H   0  0  0  0  0  0  0  0  0  0  0  0
   -5.8050    0.4850    0.5590 C   0  0  1  0  0  0  0  0  0  0  0  0
    0.8220    2.0640   -1.0120 H   0  0  0  0  0  0  0  0  0  0  0  0
   -1.4670   -2.3030   -1.2340 C   0  0  0  0  0  0  0  0  0  0  0  0
    6.1820   -0.9990   -2.9870 H   0  0  0  0  0  0  0  0  0  0  0  0
   -0.5350   -0.0910   -1.1790 C   0  0  0  0  0  0  0  0  0  0  0  0
    0.0120    0.5480   -1.8600 H   0  0  0  0  0  0  0  0  0  0  0  0
    3.9010    0.5910    2.0440 H   0  0  0  0  0  0  0  0  0  0  0  0
   -7.2210    2.1230    0.5990 H   0  0  0  0  0  0  0  0  0  0  0  0
    6.1650   -1.8620   -1.0050 C   0  0  0  0  0  0  0  0  0  0  0  0
   -1.0080   -1.1790   -1.9490 O   0  0  0  0  0  0  0  0  0  0  0  0
   -3.5080   -1.8020   -1.7580 H   0  0  0  0  0  0  0  0  0  0  0  0
   -4.9500   -0.2160    1.6350 C   0  0  0  0  0  0  0  0  0  0  0  0
    2.6000    1.2930   -1.4990 O   0  0  0  0  0  0  0  0  0  0  0  0
   -1.9040   -0.0380    1.6220 O   0  0  0  0  0  0  0  0  0  0  0  0
    6.0970   -0.3510    1.0050 C   0  0  0  0  0  0  0  0  0  0  0  0
    2.3360    0.1320    2.6920 H   0  0  0  0  0  0  0  0  0  0  0  0
   -2.9620   -2.1410   -0.8780 C   0  0  0  0  0  0  0  0  0  0  0  0
    2.9850    0.0500    1.8310 C   0  0  0  0  0  0  0  0  0  0  0  0
   -5.6140   -0.5020    2.4460 H   0  0  0  0  0  0  0  0  0  0  0  0
   -3.0870    2.5170    0.2850 C   0  0  0  0  0  0  0  0  0  0  0  0
    3.9080    0.0680   -2.7450 H   0  0  0  0  0  0  0  0  0  0  0  0
   -3.9140    2.5230   -1.6750 H   0  0  0  0  0  0  0  0  0  0  0  0
   -6.5430   -0.2460    0.2200 H   0  0  0  0  0  0  0  0  0  0  0  0
    0.1200   -0.4110   -0.3700 H   0  0  0  0  0  0  0  0  0  0  0  0
 14 13  1  0
 15  9  1  0
 17 12  1  0
 20 15  1  0
 21 12  1  0
 22 21  1  0
 24 15  1  0
 24  7  1  0
  4 25  1  6
 27 26  1  0
 28 13  1  0
 29 10  1  0
 29  4  1  0
 30 21  2  0
 32 12  1  0
 33 10  1  0
 33  5  1  0
 36 32  1  0
 37 32  2  0
 39 10  1  0
 40  8  1  0
 40  4  1  0
 40  3  1  0
 41 29  1  0
 41 22  1  0
 42 28  1  0
 43 28  1  0
 44 36  1  0
 44  7  1  0
 44  1  1  6
 45  4  1  0
 45 19  1  1
 47 26  1  0
 47 28  1  0
 48 12  1  0
 49 38  1  0
 49 18  1  0
 50 33  1  0
 51 44  1  0
 52 51  1  0
 54 26  1  0
 55 45  1  0
 55 35  1  0
 55 33  1  0
 55 31  1  0
 56 51  1  0
 56 49  1  0
 58 47  1  0
 58 15  1  0
 58  6  1  0
 59 41  2  0
 60  7  2  0
 61 46  1  0
 61 45  1  0
 61 34  1  0
 61 11  1  0
 63 57  1  0
 63 49  1  0
 63 24  1  0
 63 23  1  0
 64 62  1  0
 64 53  1  0
 64 40  1  0
 64 22  1  0
 65 58  1  0
 66 36  1  0
 66 16  1  0
 66 13  1  0
 66  2  1  0
 67 10  1  0
 68 13  1  0
 47 69  1  6
 70 51  1  0
M  CHG  1  26   1
M  END
$$$$

     RDKit          3D

 70 71  0  0  0  0  0  0  0  0999 V2000
   -2.8640    4.2160    1.9150 H   0  0  0  0  0  0  0  0  0  0  0  0
    4.9760    0.0700    0.1810 H   0  0  0  0  0  0  0  0  0  0  0  0
   -2.8330    2.5050    1.4780 H   0  0  0  0  0  0  0  0  0  0  0  0
    1.9060    2.2850    2.8120 H   0  0  0  0  0  0  0  0  0  0  0  0
   -3.9480    1.2650   -1.9090 H   0  0  0  0  0  0  0  0  0  0  0  0
    0.7300    3.6430    1.1580 H   0  0  0  0  0  0  0  0  0  0  0  0
   -2.5890   -1.4230    1.3030 C   0  0  0  0  0  0  0  0  0  0  0  0
   -2.8580   -1.2640    0.0080 N   0  0  0  0  0  0  0  0  0  0  0  0
    0.1860   -1.2570    2.5710 C   0  0  0  0  0  0  0  0  0  0  0  0
    5.1580   -0.5200   -0.7070 C   0  0  0  0  0  0  0  0  0  0  0  0
    1.3650   -2.5580   -2.7760 H   0  0  0  0  0  0  0  0  0  0  0  0
   -2.1480    0.6480   -0.3000 H   0  0  0  0  0  0  0  0  0  0  0  0
    4.5220   -1.7930   -3.0480 H   0  0  0  0  0  0  0  0  0  0  0  0
    3.8780   -0.9770   -1.2510 N   0  0  0  0  0  0  0  0  0  0  0  0
   -2.6720   -0.1290   -0.8700 C   0  0  2  0  0  0  0  0  0  0  0  0
   -0.2090    1.0570    1.6050 C   0  0  0  0  0  0  0  0  0  0  0  0
   -3.8660   -4.6790    0.3620 C   0  0  0  0  0  0  0  0  0  0  0  0
    1.0050    2.2900    3.4200 C   0  0  0  0  0  0  0  0  0  0  0  0
   -1.0670    3.9450   -0.5820 C   0  0  0  0  0  0  0  0  0  0  0  0
   -0.1010   -0.9120   -0.0270 H   0  0  0  0  0  0  0  0  0  0  0  0
    3.0070   -0.8870   -3.1780 H   0  0  0  0  0  0  0  0  0  0  0  0
    1.6360   -2.5930   -1.7220 C   0  0  0  0  0  0  0  0  0  0  0  0
   -4.2820   -4.8530   -0.6220 H   0  0  0  0  0  0  0  0  0  0  0  0
   -4.6430   -4.8560    1.1010 H   0  0  0  0  0  0  0  0  0  0  0  0
    4.1310    1.2280   -2.8040 H   0  0  0  0  0  0  0  0  0  0  0  0
   -2.5960    0.5100    2.1570 H   0  0  0  0  0  0  0  0  0  0  0  0
    0.3670   -0.7380   -0.9300 C   0  0  0  0  0  0  0  0  0  0  0  0
    0.2670   -1.3000    3.6580 H   0  0  0  0  0  0  0  0  0  0  0  0
   -0.6530   -0.1720    2.1620 N   0  0  0  0  0  0  0  0  0  0  0  0
   -3.3840   -3.2700    0.4350 C   0  0  0  0  0  0  0  0  0  0  0  0
    4.7710    0.3720   -2.9330 C   0  0  0  0  0  0  0  0  0  0  0  0
    1.0350    3.1700    4.0500 H   0  0  0  0  0  0  0  0  0  0  0  0
   -3.3340    3.7010    0.2750 H   0  0  0  0  0  0  0  0  0  0  0  0
    5.8260    0.2980   -1.8140 C   0  0  0  0  0  0  0  0  0  0  0  0
   -0.3810   -0.0650   -2.0310 C   0  0  0  0  0  0  0  0  0  0  0  0
    1.0010    1.4160    4.0550 H   0  0  0  0  0  0  0  0  0  0  0  0
   -0.2330    3.5920    1.6710 C   0  0  0  0  0  0  0  0  0  0  0  0
   -4.6340    0.6440   -0.4090 H   0  0  0  0  0  0  0  0  0  0  0  0
   -0.1890   -2.2070    2.2120 H   0  0  0  0  0  0  0  0  0  0  0  0
    5.7150   -1.3950   -0.3950 H   0  0  0  0  0  0  0  0  0  0  0  0
    6.7110   -0.2120   -2.1580 H   0  0  0  0  0  0  0  0  0  0  0  0
   -2.2420   -0.8380    3.3100 H   0  0  0  0  0  0  0  0  0  0  0  0
   -2.2910   -0.1070   -2.9970 H   0  0  0  0  0  0  0  0  0  0  0  0
   -1.8850   -1.6230   -2.1950 H   0  0  0  0  0  0  0  0  0  0  0  0
    2.6140   -3.0340   -1.5960 H   0  0  0  0  0  0  0  0  0  0  0  0
    3.9850   -0.9190   -2.7040 C   0  0  0  0  0  0  0  0  0  0  0  0
   -2.0660   -0.4370    2.2950 C   0  0  0  0  0  0  0  0  0  0  0  0
    0.1130   -0.2870   -2.9800 H   0  0  0  0  0  0  0  0  0  0  0  0
   -0.3210    4.4610    2.3350 H   0  0  0  0  0  0  0  0  0  0  0  0
   -1.2830    3.6750    0.6570 N   0  0  0  0  0  0  0  0  0  0  0  0
    2.7400    0.2320    0.1940 O   0  0  0  0  0  0  0  0  0  0  0  0
   -3.0610   -5.3730    0.5480 H   0  0  0  0  0  0  0  0  0  0  0  0
   -4.0530    0.3850   -1.2910 C   0  0  0  0  0  0  0  0  0  0  0  0
    0.9030   -3.1970   -1.2050 H   0  0  0  0  0  0  0  0  0  0  0  0
    2.7480   -0.6100   -0.6660 C   0  0  0  0  0  0  0  0  0  0  0  0
   -4.5820   -0.3810   -1.8410 H   0  0  0  0  0  0  0  0  0  0  0  0
   -2.8790   -2.6980    1.5930 O   0  0  0  0  0  0  0  0  0  0  0  0
   -0.2400    2.2910    2.5370 C   0  0  1  0  0  0  0  0  0  0  0  0
    6.1420    1.2690   -1.4870 H   0  0  0  0  0  0  0  0  0  0  0  0
    5.1860    0.4150   -3.9280 H   0  0  0  0  0  0  0  0  0  0  0  0
    1.6150   -1.2530   -1.1530 N   0  0  0  0  0  0  0  0  0  0  0  0
   -0.8570    1.3150    0.7590 H   0  0  0  0  0  0  0  0  0  0  0  0
    1.1890   -1.1020    2.1390 H   0  0  0  0  0  0  0  0  0  0  0  0
   -1.4860    4.1410   -1.5860 O   0  0  0  0  0  0  0  0  0  0  0  0
    0.8100    0.9490    1.2250 H   0  0  0  0  0  0  0  0  0  0  0  0
   -3.4450   -2.3840   -0.4860 N   0  0  0  0  0  0  0  0  0  0  0  0
   -1.1900    2.3340    3.2610 O   0  0  0  0  0  0  0  0  0  0  0  0
   -0.3620    1.0110   -1.8780 H   0  0  0  0  0  0  0  0  0  0  0  0
   -1.8480   -0.5420   -2.0970 C   0  0  0  0  0  0  0  0  0  0  0  0
   -2.6620    3.5110    1.1120 C   0  0  0  0  0  0  0  0  0  0  0  0
  8  7  1  0
 10  2  1  0
 14 10  1  0
 15 12  1  1
 15  8  1  0
 18  4  1  0
 22 11  1  0
 23 17  1  0
 24 17  1  0
 27 20  1  0
 28  9  1  0
 29 16  1  0
 29  9  1  0
 30 17  1  0
 31 25  1  0
 32 18  1  0
 34 31  1  0
 34 10  1  0
 35 27  1  0
 36 18  1  0
 37  6  1  0
 39  9  1  0
 40 10  1  0
 41 34  1  0
 45 22  1  0
 46 31  1  0
 46 21  1  0
 46 14  1  0
 46 13  1  0
 47 42  1  0
 47 29  1  0
 47 26  1  0
 47  7  1  0
 48 35  1  0
 49 37  1  0
 50 37  1  0
 50 19  1  0
 52 17  1  0
 53 38  1  0
 53 15  1  0
 53  5  1  0
 54 22  1  0
 55 51  2  0
 55 14  1  0
 56 53  1  0
 57 30  1  0
 57  7  1  0
 58 37  1  0
 58 18  1  0
 58 16  1  0
 59 34  1  0
 60 31  1  0
 61 55  1  0
 61 27  2  0
 61 22  1  0
 62 16  1  0
 63  9  1  0
 64 19  3  0
 65 16  1  0
 66 30  2  0
 66  8  1  0
 58 67  1  1
 68 35  1  0
 69 44  1  0
 69 43  1  0
 69 35  1  0
 69 15  1  0
 70 50  1  0
 70 33  1  0
 70  3  1  0
 70  1  1  0
M  CHG  4   7  -1  61   1  64   1  67  -1
M  END
$$$$
