
     RDKit          3D

 70 71  0  0  0  0  0  0  0  0999 V2000
    4.4050    5.0790    1.0380 C   0  0  0  0  0  0  0  0  0  0  0  0
   -4.6750   -1.6020   -1.2180 H   0  0  0  0  0  0  0  0  0  0  0  0
    2.1130   -2.1340    0.5190 C   0  0  2  0  0  0  0  0  0  0  0  0
    3.4320    4.4120   -0.7810 H   0  0  0  0  0  0  0  0  0  0  0  0
   -1.0550   -3.1620   -2.3390 H   0  0  0  0  0  0  0  0  0  0  0  0
    0.5050   -2.3530    1.9710 H   0  0  0  0  0  0  0  0  0  0  0  0
    1.9150    4.6830    0.7480 C   0  0  0  0  0  0  0  0  0  0  0  0
    2.3170    0.6900    1.5580 H   0  0  0  0  0  0  0  0  0  0  0  0
   -4.8180   -1.0330   -0.2950 C   0  0  0  0  0  0  0  0  0  0  0  0
    0.3460   -0.7200   -0.4370 C   0  0  0  0  0  0  0  0  0  0  0  0
   -6.6390    1.5140    1.1000 C   0  0  0  0  0  0  0  0  0  0  0  0
   -7.6920   -0.2870    1.4020 H   0  0  0  0  0  0  0  0  0  0  0  0
    2.5720   -0.9100   -1.6070 C   0  0  1  0  0  0  0  0  0  0  0  0
   -6.8630   -1.5780   -0.2830 H   0  0  0  0  0  0  0  0  0  0  0  0
    3.2080    0.1910    1.2750 C   0  0  0  0  0  0  0  0  0  0  0  0
    1.4580   -4.0970    1.6810 C   0  0  0  0  0  0  0  0  0  0  0  0
    3.1310   -1.7300    2.6260 O   0  0  0  0  0  0  0  0  0  0  0  0
   -3.2010    1.7730   -1.5860 H   0  0  0  0  0  0  0  0  0  0  0  0
   -6.9970    1.9390    2.0330 H   0  0  0  0  0  0  0  0  0  0  0  0
   -6.6710    0.0100    1.1550 C   0  0  0  0  0  0  0  0  0  0  0  0
    2.5890   -5.4360    0.4480 H   0  0  0  0  0  0  0  0  0  0  0  0
    3.5150   -4.5320    1.6600 H   0  0  0  0  0  0  0  0  0  0  0  0
    3.9770    0.4590    2.0190 H   0  0  0  0  0  0  0  0  0  0  0  0
    0.2550   -3.4890   -1.1960 H   0  0  0  0  0  0  0  0  0  0  0  0
    3.3330    4.2740    0.2970 C   0  0  0  0  0  0  0  0  0  0  0  0
    2.5300   -3.5850   -1.0270 H   0  0  0  0  0  0  0  0  0  0  0  0
    1.8040    4.5210    1.8100 H   0  0  0  0  0  0  0  0  0  0  0  0
    5.3970    4.7630    0.7410 H   0  0  0  0  0  0  0  0  0  0  0  0
    3.9880   -3.0740   -0.1350 H   0  0  0  0  0  0  0  0  0  0  0  0
   -7.2900    1.8840    0.3120 H   0  0  0  0  0  0  0  0  0  0  0  0
   -3.8290    0.1420   -0.3170 C   0  0  2  0  0  0  0  0  0  0  0  0
   -1.9080   -1.1280   -1.2780 C   0  0  0  0  0  0  0  0  0  0  0  0
    4.4190    0.1760   -1.8800 H   0  0  0  0  0  0  0  0  0  0  0  0
    2.8900   -1.2710    1.5370 C   0  0  0  0  0  0  0  0  0  0  0  0
   -2.2490   -0.5270    0.7350 H   0  0  0  0  0  0  0  0  0  0  0  0
    3.6570    2.2640   -1.5800 O   0  0  0  0  0  0  0  0  0  0  0  0
    1.9920   -0.1000   -2.5920 O   0  0  0  0  0  0  0  0  0  0  0  0
   -4.5590   -1.6840    0.5460 H   0  0  0  0  0  0  0  0  0  0  0  0
    1.7480    5.7240    0.5340 H   0  0  0  0  0  0  0  0  0  0  0  0
    1.1630    4.1020    0.2240 H   0  0  0  0  0  0  0  0  0  0  0  0
    4.5270   -1.1220   -0.6660 H   0  0  0  0  0  0  0  0  0  0  0  0
    3.6430    0.6360   -0.0330 N   0  0  0  0  0  0  0  0  0  0  0  0
   -0.6520   -1.6100   -1.0120 N   0  0  0  0  0  0  0  0  0  0  0  0
   -5.6590    1.9270    0.9260 H   0  0  0  0  0  0  0  0  0  0  0  0
   -3.9870    0.7560    0.6000 H   0  0  0  0  0  0  0  0  0  0  0  0
    3.8380    2.6190    1.5120 H   0  0  0  0  0  0  0  0  0  0  0  0
    3.9020   -0.3290   -1.0640 C   0  0  0  0  0  0  0  0  0  0  0  0
   -3.9270    0.4220   -2.4540 H   0  0  0  0  0  0  0  0  0  0  0  0
    0.3090    0.2610   -0.9290 H   0  0  0  0  0  0  0  0  0  0  0  0
    1.6640   -1.2550   -0.5400 N   0  0  0  0  0  0  0  0  0  0  0  0
    3.5430    2.8570    0.5670 N   0  0  0  0  0  0  0  0  0  0  0  0
    0.5160   -2.4100   -2.5950 H   0  0  0  0  0  0  0  0  0  0  0  0
    3.6430    1.9560   -0.4150 C   0  0  0  0  0  0  0  0  0  0  0  0
    0.1060   -0.5450    0.6170 H   0  0  0  0  0  0  0  0  0  0  0  0
    1.0500   -2.8520    1.2860 N   0  0  0  0  0  0  0  0  0  0  0  0
   -3.9920    1.0230   -1.5570 C   0  0  0  0  0  0  0  0  0  0  0  0
    2.8060   -1.8190   -2.1660 H   0  0  0  0  0  0  0  0  0  0  0  0
   -6.2930   -0.6590   -0.1730 C   0  0  0  0  0  0  0  0  0  0  0  0
   -6.5710   -0.0120   -1.0040 H   0  0  0  0  0  0  0  0  0  0  0  0
    2.2380    0.8040   -2.5790 H   0  0  0  0  0  0  0  0  0  0  0  0
   -4.9370    1.5360   -1.5330 H   0  0  0  0  0  0  0  0  0  0  0  0
    2.7050   -4.4730    0.9270 C   0  0  0  0  0  0  0  0  0  0  0  0
   -2.4360   -0.3810   -0.2540 N   0  0  0  0  0  0  0  0  0  0  0  0
    4.2920    6.1300    0.8100 H   0  0  0  0  0  0  0  0  0  0  0  0
   -2.4380   -1.3410   -2.3330 O   0  0  0  0  0  0  0  0  0  0  0  0
    2.9260   -3.3260   -0.0600 C   0  0  0  0  0  0  0  0  0  0  0  0
   -0.1940   -2.7220   -1.8340 C   0  0  0  0  0  0  0  0  0  0  0  0
    0.8970   -4.8260    2.4600 O   0  0  0  0  0  0  0  0  0  0  0  0
   -6.0410   -0.3560    1.9630 H   0  0  0  0  0  0  0  0  0  0  0  0
    4.3090    4.9420    2.1110 H   0  0  0  0  0  0  0  0  0  0  0  0
  9  2  1  0
 15  8  1  0
 19 11  1  0
 20 12  1  0
 20 11  1  0
 23 15  1  0
 25  7  1  0
 25  4  1  0
 25  1  1  0
 27  7  1  0
 28  1  1  0
 30 11  1  0
 31  9  1  0
 34 17  2  0
 34 15  1  0
 34  3  1  0
 37 13  1  0
 38  9  1  0
 39  7  1  0
 40  7  1  0
 42 15  1  0
 43 32  1  0
 43 10  1  0
 44 11  1  0
 31 45  1  1
 47 42  1  0
 47 41  1  0
 47 33  1  0
 47 13  1  0
 49 10  1  0
 50 13  1  0
 50 10  1  0
  3 50  1  6
 51 46  1  0
 51 25  1  0
 53 51  1  0
 53 42  1  0
 53 36  2  0
 54 10  1  0
 55 16  1  0
 55  6  1  0
 55  3  1  0
 56 48  1  0
 56 31  1  0
 56 18  1  0
 13 57  1  6
 58 20  1  0
 58 14  1  0
 58  9  1  0
 59 58  1  0
 60 37  1  0
 61 56  1  0
 62 22  1  0
 62 21  1  0
 62 16  1  0
 63 35  1  0
 63 32  1  0
 63 31  1  0
 64  1  1  0
 65 32  2  0
 66 62  1  0
 66 29  1  0
 66 26  1  0
 66  3  1  0
 67 52  1  0
 67 43  1  0
 67 24  1  0
 67  5  1  0
 68 16  2  0
 69 20  1  0
 70  1  1  0
M  END
$$$$

     RDKit          3D

 70 71  0  0  0  0  0  0  0  0999 V2000
    2.2920   -3.0540    1.9280 N   0  0  0  0  0  0  0  0  0  0  0  0
    3.4090    4.0350    1.7130 H   0  0  0  0  0  0  0  0  0  0  0  0
   -0.3440   -4.1620   -0.5820 H   0  0  0  0  0  0  0  0  0  0  0  0
   -4.8200    1.9470    1.4800 H   0  0  0  0  0  0  0  0  0  0  0  0
    2.8390   -0.4370   -1.1430 C   0  0  0  0  0  0  0  0  0  0  0  0
   -6.7610    0.8450    2.6940 H   0  0  0  0  0  0  0  0  0  0  0  0
    1.7580   -4.1880   -1.9070 H   0  0  0  0  0  0  0  0  0  0  0  0
    0.7830   -1.9760    0.3330 C   0  0  2  0  0  0  0  0  0  0  0  0
    5.9410    0.0210    0.6930 H   0  0  0  0  0  0  0  0  0  0  0  0
   -7.4070   -0.6430    2.0350 H   0  0  0  0  0  0  0  0  0  0  0  0
    2.0100    4.5090   -0.9200 H   0  0  0  0  0  0  0  0  0  0  0  0
    4.5490    4.1710   -0.1330 C   0  0  0  0  0  0  0  0  0  0  0  0
    1.4880   -0.4610    1.7240 H   0  0  0  0  0  0  0  0  0  0  0  0
   -2.1950    1.5440    0.0440 H   0  0  0  0  0  0  0  0  0  0  0  0
   -1.1970   -1.2070   -1.1180 C   0  0  0  0  0  0  0  0  0  0  0  0
    2.9930   -2.4000    2.1590 H   0  0  0  0  0  0  0  0  0  0  0  0
    0.0090   -2.2000    1.0820 H   0  0  0  0  0  0  0  0  0  0  0  0
    2.1140   -2.3330   -3.4190 H   0  0  0  0  0  0  0  0  0  0  0  0
   -4.4120   -1.1320    0.2130 C   0  0  0  0  0  0  0  0  0  0  0  0
    1.8840    2.9400   -0.1390 H   0  0  0  0  0  0  0  0  0  0  0  0
   -1.7950   -1.2140   -2.1720 O   0  0  0  0  0  0  0  0  0  0  0  0
    5.0770    0.2340   -0.8680 H   0  0  0  0  0  0  0  0  0  0  0  0
    0.7590    0.1740    0.2050 H   0  0  0  0  0  0  0  0  0  0  0  0
   -4.8540    1.2350    0.6700 C   0  0  0  0  0  0  0  0  0  0  0  0
    0.9940    5.5900    1.1130 H   0  0  0  0  0  0  0  0  0  0  0  0
   -2.5940    0.5610   -0.2150 C   0  0  0  0  0  0  0  0  0  0  0  0
    2.7430   -0.3570    0.1050 N   0  0  0  0  0  0  0  0  0  0  0  0
   -6.9750    1.0280    0.2570 H   0  0  0  0  0  0  0  0  0  0  0  0
   -1.5290   -0.4370   -0.0840 N   0  0  0  0  0  0  0  0  0  0  0  0
    4.4490    4.8170   -1.0120 H   0  0  0  0  0  0  0  0  0  0  0  0
    2.7380   -2.7890   -0.1220 H   0  0  0  0  0  0  0  0  0  0  0  0
    3.8310   -0.0330    0.8890 C   0  0  0  0  0  0  0  0  0  0  0  0
   -6.5230   -0.0110    2.0690 C   0  0  0  0  0  0  0  0  0  0  0  0
   -3.7550    0.1780    0.6950 C   0  0  2  0  0  0  0  0  0  0  0  0
    5.5930    2.2690    1.1650 H   0  0  0  0  0  0  0  0  0  0  0  0
   -6.5310   -1.5580   -0.1250 H   0  0  0  0  0  0  0  0  0  0  0  0
    4.3560    2.4140   -1.7100 O   0  0  0  0  0  0  0  0  0  0  0  0
   -0.0710    4.3860    0.4180 H   0  0  0  0  0  0  0  0  0  0  0  0
    3.7850   -0.1950    2.0600 O   0  0  0  0  0  0  0  0  0  0  0  0
    3.3240    4.2430    0.6920 C   0  0  0  0  0  0  0  0  0  0  0  0
    1.5110   -4.0390    0.2910 H   0  0  0  0  0  0  0  0  0  0  0  0
   -1.3850   -0.5920    0.8900 H   0  0  0  0  0  0  0  0  0  0  0  0
    2.0210    4.0080    0.0480 C   0  0  0  0  0  0  0  0  0  0  0  0
    0.5650   -4.6290   -3.1150 H   0  0  0  0  0  0  0  0  0  0  0  0
   -5.8160   -0.7440   -0.2240 C   0  0  0  0  0  0  0  0  0  0  0  0
    1.3920   -0.5880    0.6510 C   0  0  0  0  0  0  0  0  0  0  0  0
    3.2180   -0.5970   -2.2070 O   0  0  0  0  0  0  0  0  0  0  0  0
   -4.7860    1.8020   -0.2670 H   0  0  0  0  0  0  0  0  0  0  0  0
    4.7270    2.7420   -0.6240 C   0  0  0  0  0  0  0  0  0  0  0  0
    0.7760   -1.5140   -2.1310 O   0  0  0  0  0  0  0  0  0  0  0  0
    5.1980    1.9000    0.3090 N   0  0  0  0  0  0  0  0  0  0  0  0
   -5.8190   -0.4310   -1.2680 H   0  0  0  0  0  0  0  0  0  0  0  0
    5.4230    4.5020    0.4310 H   0  0  0  0  0  0  0  0  0  0  0  0
    1.8780   -3.0400    0.5400 C   0  0  0  0  0  0  0  0  0  0  0  0
   -4.4380   -1.8670    1.0180 H   0  0  0  0  0  0  0  0  0  0  0  0
    1.1020   -2.5130   -3.0940 C   0  0  0  0  0  0  0  0  0  0  0  0
    0.4230   -2.3680   -3.9300 H   0  0  0  0  0  0  0  0  0  0  0  0
   -0.2530   -3.5060   -1.4300 C   0  0  0  0  0  0  0  0  0  0  0  0
    0.0640   -2.0480   -1.0340 C   0  0  1  0  0  0  0  0  0  0  0  0
   -5.7290   -0.5500    2.5450 H   0  0  0  0  0  0  0  0  0  0  0  0
    0.8710    4.5340    0.9230 C   0  0  0  0  0  0  0  0  0  0  0  0
   -6.1560    0.4460    0.6720 C   0  0  2  0  0  0  0  0  0  0  0  0
    0.8510    4.0140    1.8670 H   0  0  0  0  0  0  0  0  0  0  0  0
    5.0720    0.4770    0.1940 C   0  0  0  0  0  0  0  0  0  0  0  0
   -1.2120   -3.5050   -1.9630 H   0  0  0  0  0  0  0  0  0  0  0  0
   -3.2850    0.0690    1.8330 H   0  0  0  0  0  0  0  0  0  0  0  0
   -2.9070    0.5790   -1.2610 H   0  0  0  0  0  0  0  0  0  0  0  0
    0.8680   -3.8610   -2.4100 C   0  0  0  0  0  0  0  0  0  0  0  0
   -3.8660   -1.5850   -0.6150 H   0  0  0  0  0  0  0  0  0  0  0  0
    1.7340   -3.4460    2.5940 H   0  0  0  0  0  0  0  0  0  0  0  0
 16  1  1  0
  8 17  1  1
 21 15  2  0
 24  4  1  0
 26 14  1  0
 27  5  1  0
 29 26  1  0
 29 15  1  0
 30 12  1  0
 32 27  1  0
 33 10  1  0
 33  6  1  0
 34 26  1  0
 34 24  1  0
 34 19  1  0
 39 32  2  0
 40 12  1  0
 40  2  1  0
 42 29  1  0
 43 40  1  0
 43 20  1  0
 43 11  1  0
 45 36  1  0
 45 19  1  0
 46 27  1  0
 46 23  1  0
 46 13  1  0
 46  8  1  0
 47  5  3  0
 48 24  1  0
 49 37  2  0
 49 12  1  0
 51 49  1  0
 51 35  1  0
 52 45  1  0
 53 12  1  0
 54 41  1  0
 54 31  1  0
 54  8  1  0
 54  1  1  0
 55 19  1  0
 56 50  1  0
 56 18  1  0
 57 56  1  0
 58  3  1  0
 59 58  1  0
 59 50  1  0
 59 15  1  1
 59  8  1  0
 60 33  1  0
 61 43  1  0
 61 38  1  0
 61 25  1  0
 62 45  1  0
 62 33  1  0
 62 28  1  6
 62 24  1  0
 63 61  1  0
 64 51  1  0
 64 32  1  0
 64 22  1  0
 64  9  1  0
 65 58  1  0
 34 66  1  1
 67 26  1  0
 68 58  1  0
 68 56  1  0
 68 44  1  0
 68  7  1  0
 69 19  1  0
 70  1  1  0
M  CHG  2  40  -1  47   1
M  END
$$$$

     RDKit          3D

 70 71  0  0  0  0  0  0  0  0999 V2000
    5.0280    4.0030   -0.5760 H   0  0  0  0  0  0  0  0  0  0  0  0
    3.6480    1.5150    1.1860 C   0  0  0  0  0  0  0  0  0  0  0  0
   -2.5540   -0.5950   -0.9680 N   0  0  0  0  0  0  0  0  0  0  0  0
    2.1170   -3.4500    2.5760 H   0  0  0  0  0  0  0  0  0  0  0  0
    1.5400    0.9930   -0.3760 H   0  0  0  0  0  0  0  0  0  0  0  0
    1.6130   -0.9940   -0.8590 N   0  0  0  0  0  0  0  0  0  0  0  0
   -6.9700    1.8510    0.9780 H   0  0  0  0  0  0  0  0  0  0  0  0
   -6.0020    2.3690    2.3430 H   0  0  0  0  0  0  0  0  0  0  0  0
    1.6420   -3.9600   -3.7040 H   0  0  0  0  0  0  0  0  0  0  0  0
    3.8790   -0.5940    0.7650 H   0  0  0  0  0  0  0  0  0  0  0  0
   -0.1070   -4.5450   -2.1260 H   0  0  0  0  0  0  0  0  0  0  0  0
   -1.4540   -1.2140   -0.4870 C   0  0  0  0  0  0  0  0  0  0  0  0
    1.7580   -2.3070    1.0340 H   0  0  0  0  0  0  0  0  0  0  0  0
    4.4620    1.3940    1.9010 H   0  0  0  0  0  0  0  0  0  0  0  0
    3.9830    1.9390   -1.2100 C   0  0  0  0  0  0  0  0  0  0  0  0
    2.2500   -2.6890   -2.6720 H   0  0  0  0  0  0  0  0  0  0  0  0
   -4.9910    1.6350   -0.6730 H   0  0  0  0  0  0  0  0  0  0  0  0
    3.3340    0.6140   -1.5230 C   0  0  0  0  0  0  0  0  0  0  0  0
    0.7240   -3.9250   -1.7750 C   0  0  0  0  0  0  0  0  0  0  0  0
   -3.1050    0.5590   -0.3090 C   0  0  2  0  0  0  0  0  0  0  0  0
    1.5570   -3.3860    1.7670 N   0  0  0  0  0  0  0  0  0  0  0  0
    5.3160    3.3790    2.4080 H   0  0  0  0  0  0  0  0  0  0  0  0
    0.6640   -2.5320   -3.4310 H   0  0  0  0  0  0  0  0  0  0  0  0
    6.4360    2.7890    1.1780 H   0  0  0  0  0  0  0  0  0  0  0  0
    3.0280    4.2910    1.7410 H   0  0  0  0  0  0  0  0  0  0  0  0
    6.2450    4.5150    1.4470 H   0  0  0  0  0  0  0  0  0  0  0  0
    0.4500   -5.2750    2.2110 O   0  0  0  0  0  0  0  0  0  0  0  0
    4.1180    2.3060    0.0510 N   0  0  0  0  0  0  0  0  0  0  0  0
   -0.4410   -3.8410    0.4590 C   0  0  0  0  0  0  0  0  0  0  0  0
   -6.4150   -0.5260    1.4980 H   0  0  0  0  0  0  0  0  0  0  0  0
    3.0870    0.1380    0.8580 C   0  0  0  0  0  0  0  0  0  0  0  0
    1.3530   -3.2220   -2.9580 C   0  0  0  0  0  0  0  0  0  0  0  0
    1.1820   -0.9190   -1.7450 H   0  0  0  0  0  0  0  0  0  0  0  0
    2.3050    0.2150   -0.4560 C   0  0  2  0  0  0  0  0  0  0  0  0
   -3.3350    0.3750    1.2430 C   0  0  0  0  0  0  0  0  0  0  0  0
   -2.4800    2.0330   -1.7360 H   0  0  0  0  0  0  0  0  0  0  0  0
   -5.1140   -1.4070   -0.8500 H   0  0  0  0  0  0  0  0  0  0  0  0
    2.8730    0.6720   -2.5170 H   0  0  0  0  0  0  0  0  0  0  0  0
   -0.9310   -2.1510   -1.2980 N   0  0  0  0  0  0  0  0  0  0  0  0
   -5.2410   -0.3090   -2.2210 H   0  0  0  0  0  0  0  0  0  0  0  0
    3.7960    5.5820    0.8360 H   0  0  0  0  0  0  0  0  0  0  0  0
   -6.6050    1.5540    1.9580 C   0  0  0  0  0  0  0  0  0  0  0  0
   -0.9780   -0.9830    0.5740 O   0  0  0  0  0  0  0  0  0  0  0  0
   -2.6470    0.2510    2.1430 O   0  0  0  0  0  0  0  0  0  0  0  0
   -6.4760   -0.3200   -0.9760 H   0  0  0  0  0  0  0  0  0  0  0  0
    3.4400    4.5610    0.7740 C   0  0  0  0  0  0  0  0  0  0  0  0
   -5.7820    0.2750    1.8710 C   0  0  0  0  0  0  0  0  0  0  0  0
   -1.1650   -3.2110    0.9800 H   0  0  0  0  0  0  0  0  0  0  0  0
    2.6240    4.5160    0.0450 H   0  0  0  0  0  0  0  0  0  0  0  0
   -5.4460   -0.0210    2.8620 H   0  0  0  0  0  0  0  0  0  0  0  0
   -0.9230   -4.7210    0.0600 H   0  0  0  0  0  0  0  0  0  0  0  0
   -4.6540    0.4340    1.0490 N   0  0  0  0  0  0  0  0  0  0  0  0
    2.8650    2.0980    1.6860 H   0  0  0  0  0  0  0  0  0  0  0  0
    1.4460   -4.5880   -1.2960 H   0  0  0  0  0  0  0  0  0  0  0  0
   -5.4130   -0.4170   -1.1580 C   0  0  0  0  0  0  0  0  0  0  0  0
    0.1620   -2.9780   -0.6980 C   0  0  2  0  0  0  0  0  0  0  0  0
    4.1100   -0.1470   -1.6030 H   0  0  0  0  0  0  0  0  0  0  0  0
   -4.6550    0.6400   -0.3910 C   0  0  2  0  0  0  0  0  0  0  0  0
    4.6040    3.6340    0.3610 C   0  0  0  0  0  0  0  0  0  0  0  0
    0.5470   -4.2860    1.5440 C   0  0  0  0  0  0  0  0  0  0  0  0
    2.4490   -0.2050    1.6660 H   0  0  0  0  0  0  0  0  0  0  0  0
    5.7250    3.5720    1.4200 C   0  0  0  0  0  0  0  0  0  0  0  0
   -1.3190    1.7310   -0.4250 H   0  0  0  0  0  0  0  0  0  0  0  0
    1.2360   -2.0420   -0.1050 C   0  0  0  0  0  0  0  0  0  0  0  0
    4.3630    2.6510   -2.1000 O   0  0  0  0  0  0  0  0  0  0  0  0
   -7.4550    1.4120    2.6080 H   0  0  0  0  0  0  0  0  0  0  0  0
   -2.3710    1.8320   -0.6770 C   0  0  0  0  0  0  0  0  0  0  0  0
   -2.8410   -0.7710   -1.9020 H   0  0  0  0  0  0  0  0  0  0  0  0
   -1.3100   -2.4680   -2.1500 H   0  0  0  0  0  0  0  0  0  0  0  0
   -2.7770    2.6700   -0.1310 H   0  0  0  0  0  0  0  0  0  0  0  0
 12  3  1  0
 14  2  1  0
 18 15  1  0
 19 11  1  0
 20  3  1  6
 21  4  1  0
 28 15  1  0
 28  2  1  0
 31 10  1  0
 31  2  1  0
 32 23  1  0
 32 19  1  0
 32 16  1  0
 32  9  1  0
 33  6  1  0
 34 31  1  0
 34 18  1  0
 34  6  1  0
 34  5  1  1
 35 20  1  0
 38 18  1  0
 39 12  1  0
 42  8  1  0
 42  7  1  0
 43 12  2  0
 44 35  2  0
 46 25  1  0
 46 41  1  0
 47 42  1  0
 47 30  1  0
 48 29  1  0
 49 46  1  0
 50 47  1  0
 51 29  1  0
 52 47  1  0
 52 35  1  0
 53  2  1  0
 54 19  1  0
 55 45  1  0
 55 40  1  0
 55 37  1  0
 56 39  1  6
 56 29  1  0
 56 19  1  0
 57 18  1  0
 58 55  1  0
 58 52  1  0
 58 20  1  0
 58 17  1  1
 59 46  1  0
 59 28  1  0
 59  1  1  0
 60 29  1  0
 60 27  1  0
 60 21  2  0
 61 31  1  0
 62 59  1  0
 62 22  1  0
 62 26  1  0
 62 24  1  0
 64 56  1  0
 64 13  1  0
 64  6  2  0
 65 15  2  0
 66 42  1  0
 67 63  1  0
 67 36  1  0
 67 20  1  0
 68  3  1  0
 69 39  1  0
 70 67  1  0
M  CHG  2   6   1  27  -1
M  END
$$$$

     RDKit          3D

 70 72  0  0  0  0  0  0  0  0999 V2000
    1.6480   -3.8510   -2.9480 C   0  0  0  0  0  0  0  0  0  0  0  0
   -3.6010    2.1000   -1.8080 H   0  0  0  0  0  0  0  0  0  0  0  0
   -3.9370    1.5440   -0.9370 C   0  0  0  0  0  0  0  0  0  0  0  0
    4.2950    4.3390    0.8590 H   0  0  0  0  0  0  0  0  0  0  0  0
    5.4190    1.5110    1.6390 H   0  0  0  0  0  0  0  0  0  0  0  0
    6.4550    2.8570   -0.9150 H   0  0  0  0  0  0  0  0  0  0  0  0
    1.9520    0.3780    1.0290 H   0  0  0  0  0  0  0  0  0  0  0  0
    2.5920   -3.4210   -2.6350 H   0  0  0  0  0  0  0  0  0  0  0  0
    2.5710   -1.5480   -1.0830 H   0  0  0  0  0  0  0  0  0  0  0  0
    3.4360    1.9990   -0.0840 N   0  0  0  0  0  0  0  0  0  0  0  0
    0.5980   -1.8170   -0.2140 C   0  0  1  0  0  0  0  0  0  0  0  0
   -2.0880   -1.5560   -2.4040 O   0  0  0  0  0  0  0  0  0  0  0  0
   -3.0420    1.8780    0.2520 C   0  0  2  0  0  0  0  0  0  0  0  0
    2.2230    0.0490    0.1470 N   0  0  0  0  0  0  0  0  0  0  0  0
   -3.8150    3.8190    2.1030 H   0  0  0  0  0  0  0  0  0  0  0  0
   -5.1100    2.9030    2.8540 H   0  0  0  0  0  0  0  0  0  0  0  0
    4.2510    4.1750   -0.2130 C   0  0  0  0  0  0  0  0  0  0  0  0
    2.0630   -1.3610   -0.1330 C   0  0  0  0  0  0  0  0  0  0  0  0
    0.4760   -3.1870   -2.2340 C   0  0  1  0  0  0  0  0  0  0  0  0
   -0.3240   -3.7690   -0.2860 H   0  0  0  0  0  0  0  0  0  0  0  0
    3.1150    0.7570   -0.5980 C   0  0  0  0  0  0  0  0  0  0  0  0
    5.7420    2.2310   -0.3800 C   0  0  0  0  0  0  0  0  0  0  0  0
    1.6740   -4.9160   -2.7200 H   0  0  0  0  0  0  0  0  0  0  0  0
    0.5550   -3.2740   -0.6970 C   0  0  0  0  0  0  0  0  0  0  0  0
   -3.7960   -0.2300   -2.1890 H   0  0  0  0  0  0  0  0  0  0  0  0
   -4.6660   -0.8410   -0.3370 C   0  0  0  0  0  0  0  0  0  0  0  0
   -2.9580    1.3460    2.4810 O   0  0  0  0  0  0  0  0  0  0  0  0
    5.7670    1.2450   -0.8510 H   0  0  0  0  0  0  0  0  0  0  0  0
   -4.4990   -0.6580    1.1710 C   0  0  0  0  0  0  0  0  0  0  0  0
   -1.5400   -1.0200   -1.4630 C   0  0  0  0  0  0  0  0  0  0  0  0
   -1.5450    0.5790    1.0820 H   0  0  0  0  0  0  0  0  0  0  0  0
   -5.7410    0.9440    1.4980 H   0  0  0  0  0  0  0  0  0  0  0  0
   -3.7010    0.0470   -1.1420 C   0  0  2  0  0  0  0  0  0  0  0  0
    3.5440    0.3350   -1.6340 O   0  0  0  0  0  0  0  0  0  0  0  0
   -1.0790   -1.9520    1.0950 H   0  0  0  0  0  0  0  0  0  0  0  0
   -4.5390    3.0270    1.9430 C   0  0  0  0  0  0  0  0  0  0  0  0
   -3.4540   -0.9000    1.4830 H   0  0  0  0  0  0  0  0  0  0  0  0
    0.0470   -0.6230    1.4630 H   0  0  0  0  0  0  0  0  0  0  0  0
    7.0980    1.6790    1.1850 H   0  0  0  0  0  0  0  0  0  0  0  0
    0.1830   -2.8960    4.2280 H   0  0  0  0  0  0  0  0  0  0  0  0
   -0.0140   -1.6770    1.1690 C   0  0  0  0  0  0  0  0  0  0  0  0
   -0.4560   -3.6300   -2.5780 H   0  0  0  0  0  0  0  0  0  0  0  0
    1.6850   -2.9290    2.3880 O   0  0  0  0  0  0  0  0  0  0  0  0
    2.5580   -1.9480    0.6450 H   0  0  0  0  0  0  0  0  0  0  0  0
   -1.0140    1.4430   -0.4290 H   0  0  0  0  0  0  0  0  0  0  0  0
   -1.8430    0.9340    0.0900 C   0  0  0  0  0  0  0  0  0  0  0  0
   -5.6890   -0.5940   -0.6170 H   0  0  0  0  0  0  0  0  0  0  0  0
   -0.1800   -1.4480   -3.3780 H   0  0  0  0  0  0  0  0  0  0  0  0
    1.5520   -3.7320   -4.0220 H   0  0  0  0  0  0  0  0  0  0  0  0
   -1.0590   -2.0220    3.3850 H   0  0  0  0  0  0  0  0  0  0  0  0
    4.9970    4.7770   -0.7040 H   0  0  0  0  0  0  0  0  0  0  0  0
    0.4260   -1.6840   -2.5090 C   0  0  0  0  0  0  0  0  0  0  0  0
    3.2620    4.5190   -0.5610 H   0  0  0  0  0  0  0  0  0  0  0  0
   -4.4810   -1.8840   -0.5970 H   0  0  0  0  0  0  0  0  0  0  0  0
    1.4390   -3.8050   -0.3510 H   0  0  0  0  0  0  0  0  0  0  0  0
   -0.1600   -1.0910   -1.2940 N   0  0  0  0  0  0  0  0  0  0  0  0
   -4.9840    1.7640   -0.7720 H   0  0  0  0  0  0  0  0  0  0  0  0
    6.1160    2.1320    1.0940 C   0  0  0  0  0  0  0  0  0  0  0  0
    3.1160    2.2510    0.8210 H   0  0  0  0  0  0  0  0  0  0  0  0
    6.1620    3.1120    1.5640 H   0  0  0  0  0  0  0  0  0  0  0  0
   -5.1610   -1.3580    1.6830 H   0  0  0  0  0  0  0  0  0  0  0  0
   -2.3050   -0.1970   -0.7070 N   0  0  0  0  0  0  0  0  0  0  0  0
    0.6090   -2.4640    2.3220 C   0  0  0  0  0  0  0  0  0  0  0  0
    1.4050   -1.2370   -2.6670 H   0  0  0  0  0  0  0  0  0  0  0  0
   -2.6910    2.8980    0.2270 H   0  0  0  0  0  0  0  0  0  0  0  0
   -3.8120    1.7020    1.6090 C   0  0  1  0  0  0  0  0  0  0  0  0
   -5.1970    3.3000    1.1410 H   0  0  0  0  0  0  0  0  0  0  0  0
   -4.7930    0.6430    1.6550 N   0  0  0  0  0  0  0  0  0  0  0  0
   -0.1870   -2.4960    3.3990 N   0  0  0  0  0  0  0  0  0  0  0  0
    4.4270    2.7990   -0.6120 N   0  0  0  0  0  0  0  0  0  0  0  0
  3  2  1  0
  8  1  1  0
 13  3  1  0
 14  7  1  0
 17  4  1  0
 18 14  1  0
 11 18  1  1
 18  9  1  0
 19  1  1  0
 21 14  1  0
 21 10  1  0
 22  6  1  0
 23  1  1  0
 24 20  1  0
 24 19  1  0
 24 11  1  0
 28 22  1  0
 29 26  1  0
 30 12  2  0
 33 26  1  0
 33 25  1  6
 33  3  1  0
 34 21  2  0
 36 16  1  0
 36 15  1  0
 37 29  1  0
 41 38  1  0
 41 35  1  0
 41 11  1  0
 19 42  1  6
 44 18  1  0
 46 45  1  0
 46 31  1  0
 46 13  1  0
 47 26  1  0
 49  1  1  0
 51 17  1  0
 52 48  1  0
 52 19  1  0
 53 17  1  0
 54 26  1  0
 55 24  1  0
 56 52  1  0
 56 30  1  0
 56 11  1  0
 57  3  1  0
 58  5  1  0
 58 39  1  0
 58 22  1  0
 59 10  1  0
 60 58  1  0
 61 29  1  0
 62 46  1  0
 62 33  1  0
 62 30  1  0
 63 43  2  0
 63 41  1  0
 64 52  1  0
 13 65  1  6
 66 36  1  0
 66 27  1  1
 66 13  1  0
 67 36  1  0
 68 32  1  0
 68 66  1  0
 68 29  1  0
 69 63  1  0
 69 50  1  0
 69 40  1  0
 70 17  1  0
 70 10  1  0
 70 22  1  0
M  CHG  1  27  -1
M  END
$$$$

     RDKit          3D

 70 72  0  0  0  0  0  0  0  0999 V2000
    6.2960    4.0770    0.3360 H   0  0  0  0  0  0  0  0  0  0  0  0
   -3.6820    2.4740    1.7490 H   0  0  0  0  0  0  0  0  0  0  0  0
   -6.2590    0.7390   -0.2430 H   0  0  0  0  0  0  0  0  0  0  0  0
   -5.0710    2.5470    0.0910 C   0  0  0  0  0  0  0  0  0  0  0  0
    5.2160    2.6320   -2.3460 C   0  0  0  0  0  0  0  0  0  0  0  0
    2.5860   -1.9070    1.5630 H   0  0  0  0  0  0  0  0  0  0  0  0
    0.6190   -2.3860   -2.8620 H   0  0  0  0  0  0  0  0  0  0  0  0
    4.8730    2.0680    1.0830 O   0  0  0  0  0  0  0  0  0  0  0  0
   -4.2510    0.2050   -0.4140 C   0  0  0  0  0  0  0  0  0  0  0  0
   -3.1640    0.7860   -1.2100 C   0  0  0  0  0  0  0  0  0  0  0  0
    4.4570    3.0080   -3.0430 H   0  0  0  0  0  0  0  0  0  0  0  0
    0.6720   -1.3500    3.1250 H   0  0  0  0  0  0  0  0  0  0  0  0
   -3.8060    3.0460    0.8260 C   0  0  0  0  0  0  0  0  0  0  0  0
    2.7600    1.1150    0.3580 H   0  0  0  0  0  0  0  0  0  0  0  0
   -0.0780   -3.7250    1.9150 N   0  0  0  0  0  0  0  0  0  0  0  0
    3.7860    0.8550   -1.4750 C   0  0  0  0  0  0  0  0  0  0  0  0
    1.1400   -5.3810    0.5270 C   0  0  0  0  0  0  0  0  0  0  0  0
   -6.1740    0.8150    1.9730 H   0  0  0  0  0  0  0  0  0  0  0  0
   -5.2930    1.0110    0.2200 C   0  0  1  0  0  0  0  0  0  0  0  0
    5.8670    1.9660   -2.9180 H   0  0  0  0  0  0  0  0  0  0  0  0
   -0.4940   -2.9600   -0.5320 C   0  0  1  0  0  0  0  0  0  0  0  0
    1.7920   -0.3890   -0.8890 C   0  0  0  0  0  0  0  0  0  0  0  0
   -1.9010   -3.1970    1.0180 H   0  0  0  0  0  0  0  0  0  0  0  0
    1.0820    0.0100   -1.7830 O   0  0  0  0  0  0  0  0  0  0  0  0
   -0.4200    3.5950    0.1520 H   0  0  0  0  0  0  0  0  0  0  0  0
    4.5930    1.9180   -1.2250 N   0  0  0  0  0  0  0  0  0  0  0  0
    1.2760   -2.8980   -2.1580 C   0  0  0  0  0  0  0  0  0  0  0  0
    5.9120    3.6680   -1.6790 N   0  0  0  0  0  0  0  0  0  0  0  0
   -0.9850   -0.6140   -0.4490 H   0  0  0  0  0  0  0  0  0  0  0  0
   -1.1740    3.2230    1.7000 H   0  0  0  0  0  0  0  0  0  0  0  0
    3.6530   -0.3420    0.2620 H   0  0  0  0  0  0  0  0  0  0  0  0
    1.6710   -4.6090    0.0070 H   0  0  0  0  0  0  0  0  0  0  0  0
    0.5760   -4.9020    1.8450 C   0  0  0  0  0  0  0  0  0  0  0  0
   -1.7880    0.6680    0.8980 C   0  0  0  0  0  0  0  0  0  0  0  0
    0.3590   -5.8060   -0.0930 H   0  0  0  0  0  0  0  0  0  0  0  0
    0.5970   -1.0860    2.0700 C   0  0  0  0  0  0  0  0  0  0  0  0
    1.6800   -1.3770    1.2310 C   0  0  0  0  0  0  0  0  0  0  0  0
   -2.1080    1.5210   -0.3270 C   0  0  2  0  0  0  0  0  0  0  0  0
    2.2910   -2.5630   -2.3220 H   0  0  0  0  0  0  0  0  0  0  0  0
   -1.1810    1.5740   -0.9190 H   0  0  0  0  0  0  0  0  0  0  0  0
    1.4800   -1.5040   -0.1960 N   0  0  0  0  0  0  0  0  0  0  0  0
   -2.6660    3.4700   -0.9440 H   0  0  0  0  0  0  0  0  0  0  0  0
    3.7830    0.3300   -2.5590 O   0  0  0  0  0  0  0  0  0  0  0  0
   -0.8580   -2.8750    0.9810 C   0  0  2  0  0  0  0  0  0  0  0  0
    0.7480   -5.5610    2.8440 O   0  0  0  0  0  0  0  0  0  0  0  0
   -1.1950   -0.4920    0.5250 N   0  0  0  0  0  0  0  0  0  0  0  0
   -1.9390    0.9410    2.0330 O   0  0  0  0  0  0  0  0  0  0  0  0
   -5.0480    2.8130   -0.9490 H   0  0  0  0  0  0  0  0  0  0  0  0
   -0.2430   -3.5260    2.8900 H   0  0  0  0  0  0  0  0  0  0  0  0
   -3.5620    1.4780   -1.9390 H   0  0  0  0  0  0  0  0  0  0  0  0
    1.1390   -0.2430    1.7520 H   0  0  0  0  0  0  0  0  0  0  0  0
    1.8360   -6.1900    0.7520 H   0  0  0  0  0  0  0  0  0  0  0  0
   -1.5600    4.7190    0.8640 H   0  0  0  0  0  0  0  0  0  0  0  0
   -4.2280   -0.7960   -0.1100 H   0  0  0  0  0  0  0  0  0  0  0  0
   -1.2920   -2.3420   -1.3450 O   0  0  0  0  0  0  0  0  0  0  0  0
   -2.6730   -0.0260   -1.7530 H   0  0  0  0  0  0  0  0  0  0  0  0
   -2.5010    2.9630    0.0100 C   0  0  2  0  0  0  0  0  0  0  0  0
   -3.9540    4.0950    1.0910 H   0  0  0  0  0  0  0  0  0  0  0  0
   -5.9400    3.0240    0.5440 H   0  0  0  0  0  0  0  0  0  0  0  0
    5.8020    3.5200   -0.3330 N   0  0  0  0  0  0  0  0  0  0  0  0
    6.4790    4.3940   -2.0780 H   0  0  0  0  0  0  0  0  0  0  0  0
    0.8800   -2.6110   -0.7940 N   0  0  0  0  0  0  0  0  0  0  0  0
   -1.5560   -1.3050    2.3200 H   0  0  0  0  0  0  0  0  0  0  0  0
    5.0450    2.4470   -0.0440 C   0  0  0  0  0  0  0  0  0  0  0  0
   -1.3460    3.6660    0.7300 C   0  0  0  0  0  0  0  0  0  0  0  0
   -0.8040   -1.4230    1.5180 C   0  0  2  0  0  0  0  0  0  0  0  0
    1.1990   -3.9660   -2.3340 H   0  0  0  0  0  0  0  0  0  0  0  0
    2.9990    0.3210   -0.3270 C   0  0  0  0  0  0  0  0  0  0  0  0
   -0.6370   -4.0370   -0.8230 H   0  0  0  0  0  0  0  0  0  0  0  0
   -5.3160    0.6840    1.6100 O   0  0  0  0  0  0  0  0  0  0  0  0
 10  9  1  0
 11  5  1  0
 13  4  1  0
 13  2  1  0
 19  3  1  6
 19  9  1  0
 19  4  1  0
 20  5  1  0
 24 22  2  0
 26 16  1  0
 26  5  1  0
 27  7  1  0
 28  5  1  0
 32 17  1  0
 33 17  1  0
 33 15  1  0
 35 17  1  0
 36 12  1  0
 37 36  1  0
 37  6  1  0
 38 34  1  0
 38 10  1  0
 39 27  1  0
 38 40  1  6
 41 37  2  0
 41 22  1  0
 43 16  2  0
 44 23  1  6
 44 21  1  0
 44 15  1  0
 45 33  2  0
 46 34  1  0
 46 29  1  0
 47 34  2  0
 48  4  1  0
 49 15  1  0
 50 10  1  0
 51 36  1  0
 52 17  1  0
 54  9  1  0
 55 21  1  0
 56 10  1  0
 57 42  1  6
 57 38  1  0
 57 13  1  0
 58 13  1  0
 59  4  1  0
 60 28  1  0
 60  1  1  0
 61 28  1  0
 62 41  1  0
 62 27  1  0
 62 21  1  0
 64 26  1  0
 64  8  2  0
 64 60  1  0
 65 57  1  0
 65 53  1  0
 65 30  1  0
 65 25  1  0
 66 63  1  1
 66 46  1  0
 66 44  1  0
 66 36  1  0
 67 27  1  0
 68 31  1  0
 68 22  1  0
 68 16  1  0
 68 14  1  0
 21 69  1  6
 70 18  1  0
 70 19  1  0
M  CHG  3   9   1  41   1  55  -1
M  END
$$$$

     RDKit          3D

 70 73  0  0  0  0  0  0  0  0999 V2000
    1.1490    2.7540    0.2100 C   0  0  0  0  0  0  0  0  0  0  0  0
   -4.3440   -0.6050    0.7500 N   0  0  0  0  0  0  0  0  0  0  0  0
   -7.1710   -1.9010    1.9640 H   0  0  0  0  0  0  0  0  0  0  0  0
   -4.9590   -1.1100    2.6620 H   0  0  0  0  0  0  0  0  0  0  0  0
    0.7850    0.8920   -0.8490 H   0  0  0  0  0  0  0  0  0  0  0  0
   -2.6260   -0.7400    2.1920 O   0  0  0  0  0  0  0  0  0  0  0  0
   -5.9500    0.6720    1.9370 C   0  0  0  0  0  0  0  0  0  0  0  0
    1.3830   -1.9020    2.8230 O   0  0  0  0  0  0  0  0  0  0  0  0
    4.9860    1.5420    0.9340 C   0  0  0  0  0  0  0  0  0  0  0  0
   -6.8850    0.6350    2.4960 H   0  0  0  0  0  0  0  0  0  0  0  0
    6.1400    4.0850   -1.0700 H   0  0  0  0  0  0  0  0  0  0  0  0
    0.4050   -4.6080   -2.3190 H   0  0  0  0  0  0  0  0  0  0  0  0
    5.4930    3.5800    1.3130 H   0  0  0  0  0  0  0  0  0  0  0  0
    2.1420   -4.4230   -2.4810 H   0  0  0  0  0  0  0  0  0  0  0  0
   -2.1440   -0.8730   -0.1180 C   0  0  0  0  0  0  0  0  0  0  0  0
   -0.7620   -1.4240    0.2330 C   0  0  2  0  0  0  0  0  0  0  0  0
    7.0850    2.7920   -0.3630 H   0  0  0  0  0  0  0  0  0  0  0  0
   -7.3940   -1.4940   -0.7920 H   0  0  0  0  0  0  0  0  0  0  0  0
   -4.8580   -0.2740   -0.5650 C   0  0  0  0  0  0  0  0  0  0  0  0
    5.1810    0.0250   -2.0450 H   0  0  0  0  0  0  0  0  0  0  0  0
    5.9650    1.1770    1.2740 H   0  0  0  0  0  0  0  0  0  0  0  0
    1.3450   -3.9410   -0.9920 H   0  0  0  0  0  0  0  0  0  0  0  0
    4.5650    0.7110   -0.1870 N   0  0  0  0  0  0  0  0  0  0  0  0
    5.5310    0.7140   -1.2740 C   0  0  0  0  0  0  0  0  0  0  0  0
   -8.1240   -0.4350    0.4060 H   0  0  0  0  0  0  0  0  0  0  0  0
    6.0700    3.0680   -0.7080 C   0  0  0  0  0  0  0  0  0  0  0  0
   -2.0510    0.0880   -0.6410 H   0  0  0  0  0  0  0  0  0  0  0  0
    6.4760    0.3520   -0.8820 H   0  0  0  0  0  0  0  0  0  0  0  0
    1.8470    3.1110   -0.5410 H   0  0  0  0  0  0  0  0  0  0  0  0
   -7.1820   -0.8600    0.0620 C   0  0  0  0  0  0  0  0  0  0  0  0
    3.2840    0.4780   -0.5240 C   0  0  0  0  0  0  0  0  0  0  0  0
   -6.1850    1.2200    0.6980 O   0  0  0  0  0  0  0  0  0  0  0  0
    4.1470    3.3850    0.2000 H   0  0  0  0  0  0  0  0  0  0  0  0
   -6.4780   -1.6290    1.1700 C   0  0  0  0  0  0  0  0  0  0  0  0
   -3.0430   -0.7290    1.0670 C   0  0  0  0  0  0  0  0  0  0  0  0
   -6.0240   -2.5390    0.7930 H   0  0  0  0  0  0  0  0  0  0  0  0
    1.2490   -3.9750   -2.0710 C   0  0  0  0  0  0  0  0  0  0  0  0
    0.0260   -0.7290    1.2520 N   0  0  0  0  0  0  0  0  0  0  0  0
   -0.9540    1.0840    0.9310 H   0  0  0  0  0  0  0  0  0  0  0  0
    6.4050    2.1230   -2.6230 H   0  0  0  0  0  0  0  0  0  0  0  0
    1.4780    3.1020    1.1810 H   0  0  0  0  0  0  0  0  0  0  0  0
   -5.2920    1.3550    2.4610 H   0  0  0  0  0  0  0  0  0  0  0  0
    5.1220    2.9840    0.4760 C   0  0  0  0  0  0  0  0  0  0  0  0
    0.1760    3.1940    0.0050 H   0  0  0  0  0  0  0  0  0  0  0  0
   -2.6000   -1.5670   -0.8380 H   0  0  0  0  0  0  0  0  0  0  0  0
   -0.8570   -2.4630    0.6010 H   0  0  0  0  0  0  0  0  0  0  0  0
    0.0350    0.7260    1.1810 C   0  0  0  0  0  0  0  0  0  0  0  0
   -4.2310    0.4840   -1.0360 H   0  0  0  0  0  0  0  0  0  0  0  0
   -4.8860   -1.1520   -1.2110 H   0  0  0  0  0  0  0  0  0  0  0  0
    0.2860    1.1200    2.1650 H   0  0  0  0  0  0  0  0  0  0  0  0
    2.3520    0.6290    0.4630 N   0  0  0  0  0  0  0  0  0  0  0  0
    1.3290   -1.3000    1.6380 C   0  0  1  0  0  0  0  0  0  0  0  0
    4.7400    2.4270   -2.2440 H   0  0  0  0  0  0  0  0  0  0  0  0
    2.4300   -0.2090    1.6400 C   0  0  0  0  0  0  0  0  0  0  0  0
    3.3970   -0.6950    1.6970 H   0  0  0  0  0  0  0  0  0  0  0  0
   -0.2270   -1.9810   -2.1140 C   0  0  0  0  0  0  0  0  0  0  0  0
    2.3180    0.3820    2.5560 H   0  0  0  0  0  0  0  0  0  0  0  0
   -1.2590   -2.0150   -2.7100 O   0  0  0  0  0  0  0  0  0  0  0  0
   -0.0710   -1.4260   -0.9710 O   0  0  0  0  0  0  0  0  0  0  0  0
    2.9730    0.1170   -1.6360 O   0  0  0  0  0  0  0  0  0  0  0  0
   -6.2600    0.2850   -0.3540 C   0  0  1  0  0  0  0  0  0  0  0  0
    4.3000    1.4570    1.7610 H   0  0  0  0  0  0  0  0  0  0  0  0
    0.9740   -2.6000   -3.7290 H   0  0  0  0  0  0  0  0  0  0  0  0
    1.8780   -1.9190   -2.3740 H   0  0  0  0  0  0  0  0  0  0  0  0
    1.0600   -2.5760   -2.6370 C   0  0  0  0  0  0  0  0  0  0  0  0
   -6.6200    0.8050   -1.2360 H   0  0  0  0  0  0  0  0  0  0  0  0
    5.6660    2.1210   -1.8180 C   0  0  0  0  0  0  0  0  0  0  0  0
    1.0680    1.2220    0.1600 C   0  0  2  0  0  0  0  0  0  0  0  0
    1.5780   -2.0880    0.8530 H   0  0  0  0  0  0  0  0  0  0  0  0
   -5.3810   -0.7190    1.7450 C   0  0  1  0  0  0  0  0  0  0  0  0
 10  7  1  0
 16 15  1  0
 19  2  1  0
 21  9  1  0
 23  9  1  0
 24 23  1  0
 24 20  1  0
 26 17  1  0
 26 11  1  0
 27 15  1  0
 28 24  1  0
 29  1  1  0
 30 25  1  0
 30 18  1  0
 31 23  1  0
 32  7  1  0
 34 30  1  0
 34  3  1  0
 35 15  1  0
 35  6  2  0
 35  2  1  0
 36 34  1  0
 37 22  1  0
 37 14  1  0
 37 12  1  0
 38 16  1  0
 41  1  1  0
 42  7  1  0
 43 33  1  0
 43  9  1  0
 43 26  1  0
 43 13  1  0
 44  1  1  0
 45 15  1  0
 16 46  1  1
 47 39  1  0
 47 38  1  0
 48 19  1  0
 49 19  1  0
 50 47  1  0
 51 31  1  0
 52 38  1  0
 52  8  1  0
 54 52  1  0
 54 51  1  0
 55 54  1  0
 57 54  1  0
 58 56  2  0
 59 56  1  0
 59 16  1  0
 60 31  2  0
 61 32  1  0
 61 30  1  0
 61 19  1  0
 62  9  1  0
 65 64  1  0
 65 63  1  0
 65 56  1  0
 65 37  1  0
 61 66  1  6
 67 53  1  0
 67 40  1  0
 67 26  1  0
 67 24  1  0
 68 51  1  0
 68 47  1  0
 68  5  1  6
 68  1  1  0
 52 69  1  6
 70 34  1  0
 70  7  1  0
 70  4  1  1
 70  2  1  0
M  CHG  1   8  -1
M  END
$$$$

     RDKit          3D

 70 72  0  0  0  0  0  0  0  0999 V2000
    3.0790    0.0790    0.6040 H   0  0  0  0  0  0  0  0  0  0  0  0
   -1.0480   -1.7320   -0.9350 C   0  0  0  0  0  0  0  0  0  0  0  0
    3.5000    0.1270    1.6040 C   0  0  0  0  0  0  0  0  0  0  0  0
   -1.3620    2.1830   -0.1360 H   0  0  0  0  0  0  0  0  0  0  0  0
   -2.2080   -2.6120   -2.4830 H   0  0  0  0  0  0  0  0  0  0  0  0
   -3.9780   -3.0840   -3.6400 H   0  0  0  0  0  0  0  0  0  0  0  0
   -5.0240   -0.8030    2.4580 H   0  0  0  0  0  0  0  0  0  0  0  0
   -2.4310    0.0490   -1.7350 C   0  0  0  0  0  0  0  0  0  0  0  0
   -3.7270    0.1410    3.1800 H   0  0  0  0  0  0  0  0  0  0  0  0
    2.4940    2.3810    1.4140 N   0  0  0  0  0  0  0  0  0  0  0  0
    0.7260    0.1080   -0.4940 H   0  0  0  0  0  0  0  0  0  0  0  0
    3.0930   -0.6830    2.2060 H   0  0  0  0  0  0  0  0  0  0  0  0
   -5.3680   -0.8300   -2.1680 H   0  0  0  0  0  0  0  0  0  0  0  0
   -3.2390   -3.2640    0.3020 H   0  0  0  0  0  0  0  0  0  0  0  0
   -2.4250    0.2350    1.0540 O   0  0  0  0  0  0  0  0  0  0  0  0
   -4.1010   -0.8480   -0.0940 C   0  0  0  0  0  0  0  0  0  0  0  0
    4.2700    4.1590    2.4480 H   0  0  0  0  0  0  0  0  0  0  0  0
    5.0830   -0.9440   -0.3910 H   0  0  0  0  0  0  0  0  0  0  0  0
   -4.1350   -0.7180   -3.4000 H   0  0  0  0  0  0  0  0  0  0  0  0
   -4.2630   -0.0600    2.2650 C   0  0  0  0  0  0  0  0  0  0  0  0
    0.6090    1.4800    1.9700 O   0  0  0  0  0  0  0  0  0  0  0  0
   -0.4340    1.9840   -0.6770 C   0  0  0  0  0  0  0  0  0  0  0  0
    6.5110   -1.2210    0.6020 H   0  0  0  0  0  0  0  0  0  0  0  0
   -1.1230   -0.3230   -1.2610 N   0  0  0  0  0  0  0  0  0  0  0  0
   -4.7740   -1.6760    0.1360 H   0  0  0  0  0  0  0  0  0  0  0  0
    3.0730    1.3960    2.1840 C   0  0  0  0  0  0  0  0  0  0  0  0
   -2.3730   -2.3360   -1.4320 C   0  0  1  0  0  0  0  0  0  0  0  0
    4.5980    3.6710    1.5260 C   0  0  1  0  0  0  0  0  0  0  0  0
   -2.3660    0.2070   -2.8220 H   0  0  0  0  0  0  0  0  0  0  0  0
    1.1890    2.1380    1.1720 C   0  0  0  0  0  0  0  0  0  0  0  0
    4.8530    5.5300    0.4420 H   0  0  0  0  0  0  0  0  0  0  0  0
    6.2900    4.9960    1.2970 H   0  0  0  0  0  0  0  0  0  0  0  0
    5.2600    1.5590   -0.0100 H   0  0  0  0  0  0  0  0  0  0  0  0
   -4.7440    0.8620    1.9500 H   0  0  0  0  0  0  0  0  0  0  0  0
   -0.5520    2.4250   -1.6740 H   0  0  0  0  0  0  0  0  0  0  0  0
   -0.1710   -2.1830   -1.4270 H   0  0  0  0  0  0  0  0  0  0  0  0
   -5.5600   -3.2460   -1.0570 H   0  0  0  0  0  0  0  0  0  0  0  0
    3.3350    3.3200    0.7050 C   0  0  0  0  0  0  0  0  0  0  0  0
   -2.8010   -3.5600   -0.6490 C   0  0  0  0  0  0  0  0  0  0  0  0
    2.7650    4.2450    0.5710 H   0  0  0  0  0  0  0  0  0  0  0  0
    5.4140    2.5020    1.8830 C   0  0  0  0  0  0  0  0  0  0  0  0
   -0.1970    0.5140   -0.7970 C   0  0  0  0  0  0  0  0  0  0  0  0
    5.0340    0.0510    1.5290 C   0  0  1  0  0  0  0  0  0  0  0  0
   -4.4480   -1.2840   -2.5270 C   0  0  0  0  0  0  0  0  0  0  0  0
   -3.2860   -0.5580    1.1860 C   0  0  2  0  0  0  0  0  0  0  0  0
   -2.7760    0.9680   -1.2740 H   0  0  0  0  0  0  0  0  0  0  0  0
   -3.3720   -1.1360   -1.4250 C   0  0  2  0  0  0  0  0  0  0  0  0
    5.0060   -2.0360    0.9930 H   0  0  0  0  0  0  0  0  0  0  0  0
   -5.6580   -2.6330   -3.6330 H   0  0  0  0  0  0  0  0  0  0  0  0
    5.4260   -0.1080    2.5340 H   0  0  0  0  0  0  0  0  0  0  0  0
    5.4410    4.6610    0.7070 C   0  0  0  0  0  0  0  0  0  0  0  0
    5.4380   -1.1130    0.6280 C   0  0  0  0  0  0  0  0  0  0  0  0
   -3.2950   -4.8910   -2.2660 H   0  0  0  0  0  0  0  0  0  0  0  0
    6.7350    1.2090    0.8880 H   0  0  0  0  0  0  0  0  0  0  0  0
   -4.7300    0.0370   -0.2680 H   0  0  0  0  0  0  0  0  0  0  0  0
    5.8190    2.4490    2.8320 H   0  0  0  0  0  0  0  0  0  0  0  0
   -5.7320   -4.4770   -2.2810 H   0  0  0  0  0  0  0  0  0  0  0  0
   -2.7340   -1.4430    1.5410 H   0  0  0  0  0  0  0  0  0  0  0  0
   -1.9170   -4.1480   -0.4010 H   0  0  0  0  0  0  0  0  0  0  0  0
   -4.7720   -2.7050   -2.9980 C   0  0  0  0  0  0  0  0  0  0  0  0
   -3.7870   -4.4410   -1.4030 C   0  0  0  0  0  0  0  0  0  0  0  0
   -4.0910   -5.2550   -0.7450 H   0  0  0  0  0  0  0  0  0  0  0  0
    5.8070    4.1970   -0.1990 H   0  0  0  0  0  0  0  0  0  0  0  0
   -0.9060   -1.8710    0.1410 H   0  0  0  0  0  0  0  0  0  0  0  0
    3.6070    2.9430   -0.2910 H   0  0  0  0  0  0  0  0  0  0  0  0
   -5.0480   -3.7190   -1.8860 C   0  0  0  0  0  0  0  0  0  0  0  0
    3.2430    1.5860    3.2110 H   0  0  0  0  0  0  0  0  0  0  0  0
    5.6520    1.3630    0.9870 C   0  0  0  0  0  0  0  0  0  0  0  0
    0.6780    2.6310   -0.0200 N   0  0  0  0  0  0  0  0  0  0  0  0
    0.9280    3.5540   -0.2500 H   0  0  0  0  0  0  0  0  0  0  0  0
  3  1  1  0
 12  3  1  0
 20  9  1  0
 20  7  1  0
 22  4  1  0
 24  8  1  0
 24  2  1  0
 25 16  1  0
 26 10  2  0
 26  3  1  0
 27  5  1  6
 27  2  1  0
 28 17  1  1
 29  8  1  0
 30 21  2  0
 30 10  1  0
 34 20  1  0
 35 22  1  0
 36  2  1  0
 38 28  1  0
 38 10  1  0
 39 27  1  0
 39 14  1  0
 40 38  1  0
 41 28  1  0
 42 24  2  0
 42 22  1  0
 42 11  1  0
 43  3  1  0
 44 19  1  0
 44 13  1  0
 45 20  1  0
 45 16  1  0
 45 15  1  0
 46  8  1  0
 47 44  1  0
 47 27  1  0
 47 16  1  1
 47  8  1  0
 43 50  1  1
 51 28  1  0
 51 31  1  0
 51 32  1  0
 52 48  1  0
 52 43  1  0
 52 18  1  0
 52 23  1  0
 55 16  1  0
 56 41  1  0
 45 58  1  1
 59 39  1  0
 60 49  1  0
 60 44  1  0
 60  6  1  0
 61 53  1  0
 61 39  1  0
 62 61  1  0
 63 51  1  0
 64  2  1  0
 65 38  1  0
 66 57  1  0
 66 37  1  0
 66 61  1  0
 66 60  1  0
 67 26  1  0
 68 43  1  0
 68 41  1  0
 68 33  1  0
 68 54  1  0
 69 30  1  0
 69 22  1  0
 70 69  1  0
M  CHG  4  10   1  15  -1  24   1  41  -1
M  END
$$$$

     RDKit          3D

 70 71  0  0  0  0  0  0  0  0999 V2000
    4.6160    4.1090    2.0060 H   0  0  0  0  0  0  0  0  0  0  0  0
    4.3890    1.2970    1.0230 C   0  0  0  0  0  0  0  0  0  0  0  0
    2.5830    3.4830    2.4600 C   0  0  0  0  0  0  0  0  0  0  0  0
    3.3770    4.5840    0.3110 C   0  0  0  0  0  0  0  0  0  0  0  0
    0.0190   -3.4610   -1.9720 C   0  0  0  0  0  0  0  0  0  0  0  0
   -3.1370   -3.5830    1.1870 H   0  0  0  0  0  0  0  0  0  0  0  0
   -0.7910    1.0000   -0.1610 H   0  0  0  0  0  0  0  0  0  0  0  0
   -4.0800   -1.0340    1.0100 C   0  0  0  0  0  0  0  0  0  0  0  0
   -0.0040   -4.4770   -1.6060 H   0  0  0  0  0  0  0  0  0  0  0  0
    0.9900    2.5870    0.9150 C   0  0  0  0  0  0  0  0  0  0  0  0
   -1.2460   -1.6160   -1.3260 C   0  0  1  0  0  0  0  0  0  0  0  0
   -4.8280   -3.8080   -0.0930 C   0  0  0  0  0  0  0  0  0  0  0  0
   -4.1290    0.4380    0.6360 C   0  0  0  0  0  0  0  0  0  0  0  0
    4.2020   -0.0790   -0.6570 H   0  0  0  0  0  0  0  0  0  0  0  0
    4.7490    0.0050    0.2800 C   0  0  0  0  0  0  0  0  0  0  0  0
    1.6760    4.0400    2.7040 H   0  0  0  0  0  0  0  0  0  0  0  0
    6.3360    1.6180    1.8990 H   0  0  0  0  0  0  0  0  0  0  0  0
   -5.5690   -2.2370   -2.0010 C   0  0  0  0  0  0  0  0  0  0  0  0
    5.3250    0.4890    2.7930 H   0  0  0  0  0  0  0  0  0  0  0  0
    4.6390    2.4220    0.1080 C   0  0  0  0  0  0  0  0  0  0  0  0
    3.4930    5.4180    2.2860 H   0  0  0  0  0  0  0  0  0  0  0  0
   -0.4160    1.4740   -1.8340 H   0  0  0  0  0  0  0  0  0  0  0  0
    0.0130    1.1530   -0.8800 C   0  0  0  0  0  0  0  0  0  0  0  0
   -5.5490   -3.3510    0.5780 H   0  0  0  0  0  0  0  0  0  0  0  0
   -4.5640    0.5820   -0.3410 H   0  0  0  0  0  0  0  0  0  0  0  0
   -3.5910   -2.1210   -2.8690 H   0  0  0  0  0  0  0  0  0  0  0  0
    0.1520    3.3360    1.3450 O   0  0  0  0  0  0  0  0  0  0  0  0
   -4.7380    0.9610    1.3670 H   0  0  0  0  0  0  0  0  0  0  0  0
   -6.1030   -1.6720   -1.2420 H   0  0  0  0  0  0  0  0  0  0  0  0
    5.5600    2.3830   -0.3900 H   0  0  0  0  0  0  0  0  0  0  0  0
   -5.0810   -1.4480    0.9550 H   0  0  0  0  0  0  0  0  0  0  0  0
    2.3410    4.8310    0.1020 H   0  0  0  0  0  0  0  0  0  0  0  0
    0.9360    2.1500   -0.4090 N   0  0  0  0  0  0  0  0  0  0  0  0
    3.7350    3.3450   -0.4930 C   0  0  0  0  0  0  0  0  0  0  0  0
   -5.3280   -3.6810   -1.5370 C   0  0  0  0  0  0  0  0  0  0  0  0
    1.8860   -2.3920   -1.5850 H   0  0  0  0  0  0  0  0  0  0  0  0
    0.1510   -1.2830   -1.2490 N   0  0  0  0  0  0  0  0  0  0  0  0
   -6.2160   -2.2650   -2.8850 H   0  0  0  0  0  0  0  0  0  0  0  0
   -3.4240   -3.2760    0.1800 C   0  0  0  0  0  0  0  0  0  0  0  0
    0.9920   -2.8470   -0.1180 H   0  0  0  0  0  0  0  0  0  0  0  0
   -1.3770   -0.8960    0.9530 O   0  0  0  0  0  0  0  0  0  0  0  0
    4.5180   -0.8690    0.8900 H   0  0  0  0  0  0  0  0  0  0  0  0
   -4.8030   -4.8690    0.1530 H   0  0  0  0  0  0  0  0  0  0  0  0
    3.3680    3.2250   -1.6420 O   0  0  0  0  0  0  0  0  0  0  0  0
   -1.2920   -2.9380   -1.8560 O   0  0  0  0  0  0  0  0  0  0  0  0
    3.6010    4.4390    1.8170 C   0  0  0  0  0  0  0  0  0  0  0  0
    0.2820   -3.4630   -3.0320 H   0  0  0  0  0  0  0  0  0  0  0  0
    2.8990    0.6720    2.4540 H   0  0  0  0  0  0  0  0  0  0  0  0
   -2.7340   -3.7290   -0.5380 H   0  0  0  0  0  0  0  0  0  0  0  0
    5.0330    2.2060    2.9090 H   0  0  0  0  0  0  0  0  0  0  0  0
    1.3080    2.9030   -0.9670 H   0  0  0  0  0  0  0  0  0  0  0  0
    3.9880    5.3990   -0.0760 H   0  0  0  0  0  0  0  0  0  0  0  0
   -3.1330    0.8730    0.6540 H   0  0  0  0  0  0  0  0  0  0  0  0
   -4.6200   -4.1660   -2.2050 H   0  0  0  0  0  0  0  0  0  0  0  0
   -3.7050   -1.1400    2.0300 H   0  0  0  0  0  0  0  0  0  0  0  0
   -6.2790   -4.2200   -1.6090 H   0  0  0  0  0  0  0  0  0  0  0  0
    2.3950    0.5330    0.7700 H   0  0  0  0  0  0  0  0  0  0  0  0
   -4.3100   -1.5730   -2.3870 C   0  0  0  0  0  0  0  0  0  0  0  0
    5.3270    1.4180    2.2360 C   0  0  0  0  0  0  0  0  0  0  0  0
    1.8240   -0.0860   -1.1370 H   0  0  0  0  0  0  0  0  0  0  0  0
    5.8100   -0.0230    0.0500 H   0  0  0  0  0  0  0  0  0  0  0  0
    2.9650    3.0520    3.3790 H   0  0  0  0  0  0  0  0  0  0  0  0
   -1.7940   -0.9750   -2.0130 H   0  0  0  0  0  0  0  0  0  0  0  0
    0.7560   -0.1170   -1.0720 C   0  0  0  0  0  0  0  0  0  0  0  0
   -1.9410   -1.4260    0.0440 C   0  0  0  0  0  0  0  0  0  0  0  0
    2.1620    2.4110    1.5660 N   0  0  0  0  0  0  0  0  0  0  0  0
    2.9150    1.1800    1.4670 C   0  0  0  0  0  0  0  0  0  0  0  0
   -3.2280   -1.8240    0.1080 N   0  0  0  0  0  0  0  0  0  0  0  0
    0.9030   -2.5180   -1.1570 C   0  0  0  0  0  0  0  0  0  0  0  0
   -4.2040   -0.5520   -2.2820 H   0  0  0  0  0  0  0  0  0  0  0  0
  9  5  1  0
 13  8  1  0
 15 14  1  0
 15  2  1  0
 16  3  1  0
 20  2  1  0
 23 22  1  0
 23  7  1  0
 24 12  1  0
 25 13  1  0
 27 10  2  0
 28 13  1  0
 29 18  1  0
 30 20  1  0
 31  8  1  0
 32  4  1  0
 33 23  1  0
 33 10  1  0
 34 20  2  0
 34  4  1  0
 35 18  1  0
 35 12  1  0
 37 11  1  0
 38 18  1  0
 39 12  1  0
 39  6  1  0
 42 15  1  0
 43 12  1  0
 44 34  1  0
 45 11  1  0
 45  5  1  0
 46 21  1  0
 46  4  1  0
 46  3  1  0
 46  1  1  0
 47  5  1  0
 49 39  1  0
 51 33  1  0
 52  4  1  0
 53 13  1  0
 54 35  1  0
 55  8  1  0
 56 35  1  0
 58 18  1  0
 58 26  1  0
 59 50  1  0
 59 19  1  0
 59  2  1  0
 59 17  1  0
 61 15  1  0
 62  3  1  0
 11 63  1  6
 64 60  1  0
 64 37  2  0
 64 23  1  0
 65 41  2  0
 65 11  1  0
 66 10  1  0
 66  3  1  0
 67 66  1  0
 67 57  1  0
 67 48  1  0
 67  2  1  0
 68 65  1  0
 68 39  1  0
 68  8  1  0
 69 40  1  0
 69 37  1  0
 69 36  1  0
 69  5  1  0
 70 58  1  0
M  CHG  3  37   1  44  -1  58   1
M  END
$$$$

     RDKit          3D

 70 74  0  0  0  0  0  0  0  0999 V2000
   -2.3640   -4.8440    0.5670 H   0  0  0  0  0  0  0  0  0  0  0  0
    2.9530    3.0140    2.0080 C   0  0  1  0  0  0  0  0  0  0  0  0
    2.4560   -0.2250   -1.5140 H   0  0  0  0  0  0  0  0  0  0  0  0
   -1.3950   -0.6500   -0.4240 C   0  0  2  0  0  0  0  0  0  0  0  0
   -3.3140    2.1660   -1.0580 H   0  0  0  0  0  0  0  0  0  0  0  0
   -4.0730   -2.2610   -2.1710 H   0  0  0  0  0  0  0  0  0  0  0  0
    4.9110    3.9530    2.0990 H   0  0  0  0  0  0  0  0  0  0  0  0
   -2.9250    1.4030   -0.3930 C   0  0  0  0  0  0  0  0  0  0  0  0
   -3.6210   -6.7580   -0.5460 H   0  0  0  0  0  0  0  0  0  0  0  0
    1.4350    0.5520    1.0590 C   0  0  0  0  0  0  0  0  0  0  0  0
   -1.9300   -1.5270   -1.3470 O   0  0  0  0  0  0  0  0  0  0  0  0
   -5.1710   -3.0560   -1.0220 H   0  0  0  0  0  0  0  0  0  0  0  0
   -4.2040   -0.1900   -1.0460 H   0  0  0  0  0  0  0  0  0  0  0  0
   -3.7480   -0.3680    1.9280 H   0  0  0  0  0  0  0  0  0  0  0  0
    2.8820    4.9050    0.9720 H   0  0  0  0  0  0  0  0  0  0  0  0
   -3.1550   -3.4210   -0.7220 N   0  0  0  0  0  0  0  0  0  0  0  0
    2.1710    4.1440    1.3150 C   0  0  0  0  0  0  0  0  0  0  0  0
   -4.9140    0.7820    0.2410 H   0  0  0  0  0  0  0  0  0  0  0  0
    4.0290    4.0720   -0.6480 H   0  0  0  0  0  0  0  0  0  0  0  0
    0.4480   -1.6050   -1.1850 H   0  0  0  0  0  0  0  0  0  0  0  0
   -3.8080   -1.6550    0.7360 H   0  0  0  0  0  0  0  0  0  0  0  0
    4.0080    0.7980    2.8520 H   0  0  0  0  0  0  0  0  0  0  0  0
   -4.4380   -4.3470   -2.6020 C   0  0  0  0  0  0  0  0  0  0  0  0
    3.4820    1.8960    1.1240 C   0  0  2  0  0  0  0  0  0  0  0  0
    0.8850    0.0550   -0.1030 N   0  0  0  0  0  0  0  0  0  0  0  0
    3.4890   -0.9970    1.2530 H   0  0  0  0  0  0  0  0  0  0  0  0
   -1.1120   -3.2190   -0.4530 H   0  0  0  0  0  0  0  0  0  0  0  0
   -4.1220   -4.6520    0.6230 H   0  0  0  0  0  0  0  0  0  0  0  0
   -1.5060   -0.0880    1.5370 H   0  0  0  0  0  0  0  0  0  0  0  0
    4.3770    0.8900    1.8380 C   0  0  0  0  0  0  0  0  0  0  0  0
   -0.8110    1.3990   -0.8720 H   0  0  0  0  0  0  0  0  0  0  0  0
   -3.5980   -4.3960   -3.3060 H   0  0  0  0  0  0  0  0  0  0  0  0
    3.6520    2.0480   -0.2940 C   0  0  2  0  0  0  0  0  0  0  0  0
    1.2720    3.7610    0.1220 C   0  0  1  0  0  0  0  0  0  0  0  0
    3.7720    4.5340    3.3100 H   0  0  0  0  0  0  0  0  0  0  0  0
    1.4420    1.2260   -1.7730 H   0  0  0  0  0  0  0  0  0  0  0  0
    5.3830    1.3130    1.8720 H   0  0  0  0  0  0  0  0  0  0  0  0
   -1.6810    0.7620   -1.0280 C   0  0  0  0  0  0  0  0  0  0  0  0
    3.7240    3.1520   -2.0950 H   0  0  0  0  0  0  0  0  0  0  0  0
   -1.8430    0.6240   -2.0950 H   0  0  0  0  0  0  0  0  0  0  0  0
    1.2790    0.4600    2.1770 O   0  0  0  0  0  0  0  0  0  0  0  0
    3.3840    3.2990   -1.0700 C   0  0  0  0  0  0  0  0  0  0  0  0
   -3.4240   -5.8220   -1.0540 C   0  0  0  0  0  0  0  0  0  0  0  0
   -2.6680    1.9000    0.5440 H   0  0  0  0  0  0  0  0  0  0  0  0
   -4.5260   -5.5750   -1.9050 O   0  0  0  0  0  0  0  0  0  0  0  0
   -2.5190   -5.9260   -1.6680 H   0  0  0  0  0  0  0  0  0  0  0  0
    4.4800    1.5010   -0.7180 H   0  0  0  0  0  0  0  0  0  0  0  0
    0.1030   -1.0750   -0.2810 C   0  0  0  0  0  0  0  0  0  0  0  0
    4.5220    2.9770    3.5090 H   0  0  0  0  0  0  0  0  0  0  0  0
    1.9490    4.6470   -1.4810 H   0  0  0  0  0  0  0  0  0  0  0  0
    2.4820    1.2230    0.1770 C   0  0  2  0  0  0  0  0  0  0  0  0
   -1.8780   -2.9340   -1.1680 C   0  0  0  0  0  0  0  0  0  0  0  0
   -3.9880    0.3340   -0.1240 C   0  0  0  0  0  0  0  0  0  0  0  0
   -3.2510   -4.6780   -0.0380 C   0  0  0  0  0  0  0  0  0  0  0  0
    4.7920   -0.4660    0.1760 H   0  0  0  0  0  0  0  0  0  0  0  0
    1.8340    0.5420   -1.0330 C   0  0  0  0  0  0  0  0  0  0  0  0
    2.2650    2.5190    2.7010 H   0  0  0  0  0  0  0  0  0  0  0  0
    0.1970   -1.7230    0.5960 H   0  0  0  0  0  0  0  0  0  0  0  0
   -5.3600   -4.2410   -3.1630 H   0  0  0  0  0  0  0  0  0  0  0  0
    0.7960    2.7980    0.3060 H   0  0  0  0  0  0  0  0  0  0  0  0
    0.4580    4.5120    0.0490 O   0  0  0  0  0  0  0  0  0  0  0  0
   -4.2600   -3.1750   -1.6190 C   0  0  0  0  0  0  0  0  0  0  0  0
   -1.9800   -0.6990    0.9100 N   0  0  0  0  0  0  0  0  0  0  0  0
   -1.5820   -3.3320   -2.1620 H   0  0  0  0  0  0  0  0  0  0  0  0
    1.5500    4.6140    2.0780 H   0  0  0  0  0  0  0  0  0  0  0  0
    1.9990    3.7200   -1.1680 N   0  0  0  0  0  0  0  0  0  0  0  0
   -3.4270   -0.6510    0.9210 C   0  0  0  0  0  0  0  0  0  0  0  0
    4.4530   -0.4940    1.2110 C   0  0  0  0  0  0  0  0  0  0  0  0
    4.1170    3.6580    2.7780 C   0  0  0  0  0  0  0  0  0  0  0  0
    5.1650   -1.1030    1.7640 H   0  0  0  0  0  0  0  0  0  0  0  0
  8  5  1  0
  4 11  1  6
 17 15  1  0
 17  2  1  0
 24  2  1  0
 25 10  1  0
 24 30  1  1
 30 22  1  0
 32 23  1  0
 33 24  1  0
 34 17  1  0
 37 30  1  0
 38 31  1  0
 38  8  1  0
 38  4  1  0
 40 38  1  0
 41 10  2  0
 42 39  1  0
 42 33  1  0
 42 19  1  0
 43  9  1  0
 44  8  1  0
 45 43  1  0
 45 23  1  0
 46 43  1  0
 33 47  1  6
 48 25  1  0
 48 20  1  0
 48  4  1  0
 51 33  1  0
 51 24  1  0
 51 10  1  0
 52 27  1  0
 52 16  1  0
 52 11  1  0
 53 18  1  0
 53 13  1  0
 53  8  1  0
 54 43  1  0
 54 28  1  0
 54 16  1  0
 54  1  1  0
 51 56  1  6
 56 36  1  0
 56 25  1  0
 56  3  1  0
  2 57  1  1
 58 48  1  0
 59 23  1  0
 34 60  1  1
 61 34  1  0
 62 23  1  0
 62 16  1  0
 62 12  1  0
 62  6  1  0
 63 29  1  0
 63  4  1  0
 64 52  1  0
 65 17  1  0
 66 50  1  0
 66 42  1  0
 66 34  1  0
 67 63  1  0
 67 53  1  0
 67 21  1  0
 67 14  1  0
 68 55  1  0
 68 30  1  0
 68 26  1  0
 69 49  1  0
 69 35  1  0
 69  7  1  0
 69  2  1  0
 70 68  1  0
M  CHG  1  61  -1
M  END
$$$$

     RDKit          3D

 70 73  0  0  0  0  0  0  0  0999 V2000
   -2.0440   -3.9760    1.0090 H   0  0  0  0  0  0  0  0  0  0  0  0
   -5.5740   -3.0260    0.0400 H   0  0  0  0  0  0  0  0  0  0  0  0
   -2.4740    1.3330    2.0910 O   0  0  0  0  0  0  0  0  0  0  0  0
   -2.3210   -4.5210   -1.4480 O   0  0  0  0  0  0  0  0  0  0  0  0
   -5.1890   -2.6510   -0.9100 C   0  0  0  0  0  0  0  0  0  0  0  0
    4.9260   -1.1270   -0.7680 H   0  0  0  0  0  0  0  0  0  0  0  0
    2.7800   -0.0010    0.5080 C   0  0  0  0  0  0  0  0  0  0  0  0
   -0.1600    4.5590    0.2060 O   0  0  0  0  0  0  0  0  0  0  0  0
   -5.0810   -4.5690   -1.8030 H   0  0  0  0  0  0  0  0  0  0  0  0
    3.5770    2.7320   -1.4560 C   0  0  0  0  0  0  0  0  0  0  0  0
   -2.7860   -3.4350    0.4270 C   0  0  0  0  0  0  0  0  0  0  0  0
    1.1510    4.2620    1.3590 H   0  0  0  0  0  0  0  0  0  0  0  0
   -0.9240   -0.4920   -2.2810 H   0  0  0  0  0  0  0  0  0  0  0  0
   -0.5360   -0.0200   -0.6210 H   0  0  0  0  0  0  0  0  0  0  0  0
   -4.4720   -1.4180   -0.6880 N   0  0  0  0  0  0  0  0  0  0  0  0
   -1.1550    0.2090   -1.4840 C   0  0  0  0  0  0  0  0  0  0  0  0
   -3.2080    0.5440   -2.0160 H   0  0  0  0  0  0  0  0  0  0  0  0
   -4.8670   -0.6810    0.4830 C   0  0  0  0  0  0  0  0  0  0  0  0
    1.9380    0.6880    0.4910 H   0  0  0  0  0  0  0  0  0  0  0  0
    6.1100    0.1160   -0.3300 H   0  0  0  0  0  0  0  0  0  0  0  0
   -0.1660    2.6190    1.1240 C   0  0  0  0  0  0  0  0  0  0  0  0
   -5.0560    1.2100   -0.5530 H   0  0  0  0  0  0  0  0  0  0  0  0
    3.6840    3.8400    1.3430 H   0  0  0  0  0  0  0  0  0  0  0  0
    4.1260   -1.5490    1.9330 C   0  0  0  0  0  0  0  0  0  0  0  0
   -3.5160   -5.2830   -0.3380 H   0  0  0  0  0  0  0  0  0  0  0  0
    4.3530   -1.8480    2.9530 H   0  0  0  0  0  0  0  0  0  0  0  0
    3.8280    1.2270   -1.4510 C   0  0  0  0  0  0  0  0  0  0  0  0
   -5.9510   -0.7640    0.6060 H   0  0  0  0  0  0  0  0  0  0  0  0
    1.0350    3.3940   -1.7240 O   0  0  0  0  0  0  0  0  0  0  0  0
    4.6870    1.5300    1.8670 H   0  0  0  0  0  0  0  0  0  0  0  0
   -2.1770   -2.1100   -0.0000 C   0  0  2  0  0  0  0  0  0  0  0  0
   -4.0350   -3.4040   -2.5600 H   0  0  0  0  0  0  0  0  0  0  0  0
    2.5360   -0.8300   -0.1680 H   0  0  0  0  0  0  0  0  0  0  0  0
   -1.9990   -1.4630    0.8970 O   0  0  0  0  0  0  0  0  0  0  0  0
    5.1760   -0.3620   -0.0260 C   0  0  0  0  0  0  0  0  0  0  0  0
    0.2890    1.9540    2.0020 O   0  0  0  0  0  0  0  0  0  0  0  0
    3.1130    3.0390   -2.3860 H   0  0  0  0  0  0  0  0  0  0  0  0
    4.5060    3.2930   -1.3670 H   0  0  0  0  0  0  0  0  0  0  0  0
    4.0470    0.6840   -0.0220 C   0  0  0  0  0  0  0  0  0  0  0  0
    2.0480   -1.0380    2.2350 H   0  0  0  0  0  0  0  0  0  0  0  0
    4.6980    1.0250   -2.0650 H   0  0  0  0  0  0  0  0  0  0  0  0
    4.4350    1.8740    0.8720 C   0  0  0  0  0  0  0  0  0  0  0  0
   -1.4790    2.7590   -0.4450 H   0  0  0  0  0  0  0  0  0  0  0  0
   -6.0560   -2.4150   -1.5330 H   0  0  0  0  0  0  0  0  0  0  0  0
   -1.1930   -2.3180   -0.4660 H   0  0  0  0  0  0  0  0  0  0  0  0
   -2.9340   -1.8060   -1.9970 H   0  0  0  0  0  0  0  0  0  0  0  0
   -3.6400   -3.2720    1.0820 H   0  0  0  0  0  0  0  0  0  0  0  0
    0.5540    3.8180    0.5600 C   0  0  1  0  0  0  0  0  0  0  0  0
   -4.3830   -1.0610    1.3940 H   0  0  0  0  0  0  0  0  0  0  0  0
    2.9630   -0.5520    1.9190 C   0  0  0  0  0  0  0  0  0  0  0  0
   -3.2070   -4.3100   -0.7630 C   0  0  1  0  0  0  0  0  0  0  0  0
    3.8270   -2.4430    1.3770 H   0  0  0  0  0  0  0  0  0  0  0  0
   -4.3870   -3.7560   -1.5920 C   0  0  0  0  0  0  0  0  0  0  0  0
    6.2520   -1.2850    1.5910 H   0  0  0  0  0  0  0  0  0  0  0  0
    2.7080    3.0970   -0.3640 N   0  0  0  0  0  0  0  0  0  0  0  0
   -3.0730    0.8950   -0.0130 N   0  0  0  0  0  0  0  0  0  0  0  0
   -3.0610   -1.3530   -1.0070 C   0  0  2  0  0  0  0  0  0  0  0  0
    5.3100   -0.9630    1.2960 C   0  0  0  0  0  0  0  0  0  0  0  0
    1.4650    3.4300   -0.6090 C   0  0  0  0  0  0  0  0  0  0  0  0
   -2.2820    1.4560    0.9210 C   0  0  0  0  0  0  0  0  0  0  0  0
    5.3300    2.3390    0.4630 H   0  0  0  0  0  0  0  0  0  0  0  0
   -4.5020    0.7860    0.2820 C   0  0  0  0  0  0  0  0  0  0  0  0
   -0.8710    1.2030   -1.8350 H   0  0  0  0  0  0  0  0  0  0  0  0
    2.5340    2.5370    1.6380 H   0  0  0  0  0  0  0  0  0  0  0  0
   -1.2970    2.3080    0.4360 N   0  0  0  0  0  0  0  0  0  0  0  0
    3.1410    0.2520    2.6220 H   0  0  0  0  0  0  0  0  0  0  0  0
   -4.7110    1.3480    1.1850 H   0  0  0  0  0  0  0  0  0  0  0  0
   -2.6390    0.1360   -1.1670 C   0  0  2  0  0  0  0  0  0  0  0  0
    2.9800    0.7180   -1.9060 H   0  0  0  0  0  0  0  0  0  0  0  0
    3.3000    2.8860    0.9540 C   0  0  0  0  0  0  0  0  0  0  0  0
  5  2  1  0
 11  1  1  0
 15  5  1  0
 16 14  1  0
 16 13  1  0
 18 15  1  0
 19  7  1  0
 26 24  1  0
 27 10  1  0
 28 18  1  0
 31 11  1  0
 33  7  1  0
 34 31  1  0
 35  6  1  0
 35 20  1  0
 36 21  2  0
 37 10  1  0
 38 10  1  0
 39 35  1  0
 39 27  1  0
 39  7  1  0
 41 27  1  0
 42 39  1  0
 42 30  1  0
 44  5  1  0
 31 45  1  6
 47 11  1  0
 48 21  1  0
 48 12  1  1
 48  8  1  0
 49 18  1  0
 50 40  1  0
 50 24  1  0
 50  7  1  0
 51 25  1  1
 51 11  1  0
 51  4  1  0
 52 24  1  0
 53 51  1  0
 53 32  1  0
 53  9  1  0
 53  5  1  0
 55 10  1  0
 57 46  1  6
 57 31  1  0
 57 15  1  0
 58 35  1  0
 58 24  1  0
 58 54  1  0
 59 55  1  0
 59 48  1  0
 59 29  2  0
 60 56  1  0
 60  3  2  0
 61 42  1  0
 62 56  1  0
 62 22  1  0
 62 18  1  0
 63 16  1  0
 65 60  1  0
 65 43  1  0
 65 21  1  0
 66 50  1  0
 67 62  1  0
 68 57  1  0
 68 56  1  0
 68 17  1  6
 68 16  1  0
 69 27  1  0
 70 64  1  0
 70 55  1  0
 70 42  1  0
 70 23  1  0
M  CHG  4   4  -1   8  -1  34  -1  58   1
M  END
$$$$

     RDKit          3D

 70 74  0  0  0  0  0  0  0  0999 V2000
    2.2530    4.1140   -1.4540 O   0  0  0  0  0  0  0  0  0  0  0  0
   -2.0910   -0.8790    1.5630 H   0  0  0  0  0  0  0  0  0  0  0  0
   -4.0610   -0.1780   -0.8970 C   0  0  0  0  0  0  0  0  0  0  0  0
    0.6510    3.7440    0.3900 C   0  0  0  0  0  0  0  0  0  0  0  0
    4.2250   -2.0320   -0.8730 C   0  0  0  0  0  0  0  0  0  0  0  0
    2.3420   -0.6460    0.1490 C   0  0  1  0  0  0  0  0  0  0  0  0
    3.0970    1.6390   -1.7120 H   0  0  0  0  0  0  0  0  0  0  0  0
   -5.9680   -0.5390    0.0330 H   0  0  0  0  0  0  0  0  0  0  0  0
    1.4110    1.8820   -2.0400 H   0  0  0  0  0  0  0  0  0  0  0  0
    2.0800    3.6660   -0.1600 C   0  0  1  0  0  0  0  0  0  0  0  0
    0.7480   -0.2020   -1.2340 H   0  0  0  0  0  0  0  0  0  0  0  0
   -4.2920   -0.8710    1.3670 C   0  0  0  0  0  0  0  0  0  0  0  0
   -3.0090    2.7390   -0.5080 H   0  0  0  0  0  0  0  0  0  0  0  0
   -6.2250   -2.5660   -0.8050 H   0  0  0  0  0  0  0  0  0  0  0  0
   -5.0300   -3.1470    0.3400 H   0  0  0  0  0  0  0  0  0  0  0  0
   -2.7080    1.1710    1.4870 C   0  0  0  0  0  0  0  0  0  0  0  0
    4.7320    0.2020    0.1500 C   0  0  0  0  0  0  0  0  0  0  0  0
    2.1520   -2.6130   -0.7020 H   0  0  0  0  0  0  0  0  0  0  0  0
    6.1890   -1.1500   -0.6670 H   0  0  0  0  0  0  0  0  0  0  0  0
    2.8010    4.1360    0.5270 H   0  0  0  0  0  0  0  0  0  0  0  0
    4.6370    0.7160   -0.8080 H   0  0  0  0  0  0  0  0  0  0  0  0
    0.0260    4.6380    0.7360 O   0  0  0  0  0  0  0  0  0  0  0  0
    2.2600   -0.5520   -2.0190 H   0  0  0  0  0  0  0  0  0  0  0  0
    5.2560   -1.2070   -0.0990 C   0  0  0  0  0  0  0  0  0  0  0  0
   -1.6550    1.8450    0.7800 N   0  0  0  0  0  0  0  0  0  0  0  0
    1.9540    2.1560   -0.0060 C   0  0  2  0  0  0  0  0  0  0  0  0
   -5.1910   -2.4660   -0.4910 C   0  0  0  0  0  0  0  0  0  0  0  0
   -0.3770    1.7270    1.2040 C   0  0  0  0  0  0  0  0  0  0  0  0
    3.7330    2.3110    1.1700 H   0  0  0  0  0  0  0  0  0  0  0  0
   -2.4810    1.2050    2.5390 H   0  0  0  0  0  0  0  0  0  0  0  0
   -4.3520   -2.9840   -1.6870 C   0  0  0  0  0  0  0  0  0  0  0  0
   -2.8780   -0.3120    1.0630 C   0  0  2  0  0  0  0  0  0  0  0  0
   -4.8380   -0.1810    2.0050 H   0  0  0  0  0  0  0  0  0  0  0  0
    1.8280   -0.0390   -1.1690 C   0  0  0  0  0  0  0  0  0  0  0  0
    2.8830   -2.0570   -0.1240 C   0  0  0  0  0  0  0  0  0  0  0  0
   -0.8410   -1.1890   -0.5160 H   0  0  0  0  0  0  0  0  0  0  0  0
    0.0120    1.1610    2.2000 O   0  0  0  0  0  0  0  0  0  0  0  0
    0.5330    2.3570    0.3870 N   0  0  0  0  0  0  0  0  0  0  0  0
    2.8720    1.6460    1.0910 C   0  0  0  0  0  0  0  0  0  0  0  0
   -1.3540    3.3010   -0.7170 H   0  0  0  0  0  0  0  0  0  0  0  0
    2.1400    5.0360   -1.4710 H   0  0  0  0  0  0  0  0  0  0  0  0
   -2.2170   -2.8570   -0.5340 C   0  0  0  0  0  0  0  0  0  0  0  0
    3.3850    0.2150    0.8970 C   0  0  1  0  0  0  0  0  0  0  0  0
   -2.6240   -2.8980    0.4810 H   0  0  0  0  0  0  0  0  0  0  0  0
    3.0070   -2.5780    0.8230 H   0  0  0  0  0  0  0  0  0  0  0  0
   -4.2970   -2.2380   -2.4750 H   0  0  0  0  0  0  0  0  0  0  0  0
    2.1040    1.4460   -1.3260 C   0  0  0  0  0  0  0  0  0  0  0  0
   -4.3260    0.8770   -0.8040 H   0  0  0  0  0  0  0  0  0  0  0  0
   -4.8850   -3.8420   -2.1090 H   0  0  0  0  0  0  0  0  0  0  0  0
    4.2730    0.3140    2.8550 H   0  0  0  0  0  0  0  0  0  0  0  0
   -4.1010   -0.4220   -1.9570 H   0  0  0  0  0  0  0  0  0  0  0  0
   -1.9790    2.4240   -0.5210 C   0  0  0  0  0  0  0  0  0  0  0  0
   -1.8350    1.7020   -1.3280 H   0  0  0  0  0  0  0  0  0  0  0  0
   -3.6310    1.7100    1.3090 H   0  0  0  0  0  0  0  0  0  0  0  0
   -3.0670   -3.5240   -1.4330 O   0  0  0  0  0  0  0  0  0  0  0  0
    5.4950   -1.7010    0.8410 H   0  0  0  0  0  0  0  0  0  0  0  0
   -2.7190   -0.3590   -0.3660 N   0  0  0  0  0  0  0  0  0  0  0  0
    4.0950   -1.6010   -1.8640 H   0  0  0  0  0  0  0  0  0  0  0  0
    5.4580    0.7610    0.7390 H   0  0  0  0  0  0  0  0  0  0  0  0
    4.5900   -3.0510   -1.0040 H   0  0  0  0  0  0  0  0  0  0  0  0
   -1.8550   -1.3860   -0.9030 C   0  0  0  0  0  0  0  0  0  0  0  0
   -1.8180   -1.2900   -1.9900 H   0  0  0  0  0  0  0  0  0  0  0  0
    1.4940   -0.7230    0.8360 H   0  0  0  0  0  0  0  0  0  0  0  0
   -4.9920   -1.0060   -0.0030 C   0  0  2  0  0  0  0  0  0  0  0  0
    3.5850   -0.3260    2.3120 C   0  0  0  0  0  0  0  0  0  0  0  0
    3.9890   -1.3250    2.3090 H   0  0  0  0  0  0  0  0  0  0  0  0
   -4.2330   -1.8170    1.8890 H   0  0  0  0  0  0  0  0  0  0  0  0
   -1.3070   -3.4490   -0.5660 H   0  0  0  0  0  0  0  0  0  0  0  0
    2.6390   -0.3430    2.8480 H   0  0  0  0  0  0  0  0  0  0  0  0
    2.3090    1.7080    2.0210 H   0  0  0  0  0  0  0  0  0  0  0  0
 10  4  1  0
 10  1  1  0
 10 20  1  1
 21 17  1  0
 22  4  2  0
 24 17  1  0
 24  5  1  0
 24 19  1  0
 25 16  1  0
 26 10  1  0
 27 14  1  0
 27 15  1  0
 28 25  1  0
 30 16  1  0
 31 27  1  0
 32 16  1  0
 32 12  1  0
 32  2  1  1
 33 12  1  0
 34 23  1  0
 34 11  1  0
 34  6  1  0
 35 18  1  0
 35  6  1  0
 35  5  1  0
 37 28  2  0
 38 28  1  0
 26 38  1  1
 38  4  1  0
 39 29  1  0
 39 26  1  0
 41  1  1  0
 43 39  1  0
 43 17  1  0
 43  6  1  0
 44 42  1  0
 45 35  1  0
 46 31  1  0
 47 34  1  0
 47 26  1  0
 47  9  1  0
 47  7  1  0
 48  3  1  0
 49 31  1  0
 51  3  1  0
 52 40  1  0
 52 25  1  0
 52 13  1  0
 53 52  1  0
 54 16  1  0
 55 42  1  0
 55 31  1  0
 56 24  1  0
 57 32  1  0
 57  3  1  0
 58  5  1  0
 59 17  1  0
 60  5  1  0
 61 57  1  0
 61 42  1  0
 61 36  1  0
 62 61  1  0
  6 63  1  1
 64  8  1  1
 64 27  1  0
 64 12  1  0
 64  3  1  0
 65 50  1  0
 43 65  1  1
 66 65  1  0
 67 12  1  0
 68 42  1  0
 69 65  1  0
 70 39  1  0
M  END
$$$$

     RDKit          3D

 70 69  0  0  0  0  0  0  0  0999 V2000
    2.4760    2.7150    3.1080 H   0  0  0  0  0  0  0  0  0  0  0  0
   -4.9710   -3.3140   -0.6680 H   0  0  0  0  0  0  0  0  0  0  0  0
    1.1500   -0.9840   -0.3580 H   0  0  0  0  0  0  0  0  0  0  0  0
    1.5450    2.3960    1.6440 H   0  0  0  0  0  0  0  0  0  0  0  0
    1.3070   -0.3200    0.6470 C   0  0  0  0  0  0  0  0  0  0  0  0
   -3.2890   -6.4040    0.9980 H   0  0  0  0  0  0  0  0  0  0  0  0
    2.4950    2.2090    2.1300 C   0  0  0  0  0  0  0  0  0  0  0  0
   -1.2230    6.3860   -0.0440 H   0  0  0  0  0  0  0  0  0  0  0  0
   -1.0110   -1.4630   -1.2920 H   0  0  0  0  0  0  0  0  0  0  0  0
    0.3030    0.2330    1.2860 N   0  0  0  0  0  0  0  0  0  0  0  0
   -0.7710    4.6290   -2.9970 C   0  0  0  0  0  0  0  0  0  0  0  0
    4.3440   -1.0650    1.1890 H   0  0  0  0  0  0  0  0  0  0  0  0
   -1.7580    4.7540   -3.3980 H   0  0  0  0  0  0  0  0  0  0  0  0
   -2.2550    6.4100   -1.4660 H   0  0  0  0  0  0  0  0  0  0  0  0
    6.9600   -0.6170    0.2950 H   0  0  0  0  0  0  0  0  0  0  0  0
   -2.7730   -1.4930    1.5910 C   0  0  0  0  0  0  0  0  0  0  0  0
   -4.0150   -5.2600   -0.7040 C   0  0  0  0  0  0  0  0  0  0  0  0
    6.1120    0.2990   -1.8900 H   0  0  0  0  0  0  0  0  0  0  0  0
   -1.4750   -1.0460    1.6020 N   0  0  0  0  0  0  0  0  0  0  0  0
   -4.7480   -4.1300    0.0190 C   0  0  0  0  0  0  0  0  0  0  0  0
   -2.0080    2.1600    0.6920 N   0  0  0  0  0  0  0  0  0  0  0  0
    3.8770    0.5380    2.9140 O   0  0  0  0  0  0  0  0  0  0  0  0
    6.0260   -2.0740    0.0300 H   0  0  0  0  0  0  0  0  0  0  0  0
   -2.6240    1.0690    2.3350 H   0  0  0  0  0  0  0  0  0  0  0  0
    2.7780    0.7000    2.3470 C   0  0  2  0  0  0  0  0  0  0  0  0
   -3.0210   -4.9270   -0.9750 H   0  0  0  0  0  0  0  0  0  0  0  0
   -0.7580    4.8520   -1.4850 C   0  0  0  0  0  0  0  0  0  0  0  0
   -0.9100    0.1760    1.5590 C   0  0  0  0  0  0  0  0  0  0  0  0
    3.0060    0.3870   -2.0210 H   0  0  0  0  0  0  0  0  0  0  0  0
   -0.6000    7.0020   -1.5660 H   0  0  0  0  0  0  0  0  0  0  0  0
   -2.5590    3.7860   -1.0420 H   0  0  0  0  0  0  0  0  0  0  0  0
   -3.6720   -0.9980    2.1790 O   0  0  0  0  0  0  0  0  0  0  0  0
   -5.6970   -4.5120    0.3970 H   0  0  0  0  0  0  0  0  0  0  0  0
    2.8690    1.6930   -0.8720 H   0  0  0  0  0  0  0  0  0  0  0  0
   -4.6110   -3.0490    1.8850 H   0  0  0  0  0  0  0  0  0  0  0  0
    5.5360   -0.4430   -1.3030 C   0  0  0  0  0  0  0  0  0  0  0  0
    5.0340    1.0750    0.2380 O   0  0  0  0  0  0  0  0  0  0  0  0
    4.5000    0.3310   -0.4700 C   0  0  2  0  0  0  0  0  0  0  0  0
   -0.1090    5.3290   -3.4740 H   0  0  0  0  0  0  0  0  0  0  0  0
   -2.0220   -1.9000   -1.2700 C   0  0  0  0  0  0  0  0  0  0  0  0
   -3.9160   -6.5400    0.1380 C   0  0  0  0  0  0  0  0  0  0  0  0
    6.5130   -1.2470   -0.4580 C   0  0  0  0  0  0  0  0  0  0  0  0
    4.1400    1.7340   -2.0760 H   0  0  0  0  0  0  0  0  0  0  0  0
    2.5670   -0.0320    1.1040 N   0  0  0  0  0  0  0  0  0  0  0  0
   -3.4890   -7.3390   -0.4510 H   0  0  0  0  0  0  0  0  0  0  0  0
   -1.2460    6.2540   -1.1200 C   0  0  0  0  0  0  0  0  0  0  0  0
   -2.0270   -2.7820   -0.1490 O   0  0  0  0  0  0  0  0  0  0  0  0
    0.0410    3.1190    0.5130 O   0  0  0  0  0  0  0  0  0  0  0  0
   -4.5520   -5.4860   -1.6250 H   0  0  0  0  0  0  0  0  0  0  0  0
    5.0150   -1.0940   -1.9900 H   0  0  0  0  0  0  0  0  0  0  0  0
   -1.5900    3.8410   -0.8580 N   0  0  0  0  0  0  0  0  0  0  0  0
    0.2540    4.7110   -1.1000 H   0  0  0  0  0  0  0  0  0  0  0  0
    7.3000   -1.6430   -1.0800 H   0  0  0  0  0  0  0  0  0  0  0  0
    3.2760    2.6460    1.5450 H   0  0  0  0  0  0  0  0  0  0  0  0
    3.2920   -1.4460   -0.2000 H   0  0  0  0  0  0  0  0  0  0  0  0
   -2.9530   -2.6000    0.7730 N   0  0  0  0  0  0  0  0  0  0  0  0
   -1.6950    1.3880    1.8770 C   0  0  0  0  0  0  0  0  0  0  0  0
   -4.8930   -6.8460    0.4660 H   0  0  0  0  0  0  0  0  0  0  0  0
    2.0140    0.2880    3.0860 H   0  0  0  0  0  0  0  0  0  0  0  0
   -0.8430   -1.7880    1.4300 H   0  0  0  0  0  0  0  0  0  0  0  0
   -1.1420    2.0170    2.5690 H   0  0  0  0  0  0  0  0  0  0  0  0
    3.6950   -0.6470    0.4220 C   0  0  0  0  0  0  0  0  0  0  0  0
   -0.4270    3.6290   -3.2280 H   0  0  0  0  0  0  0  0  0  0  0  0
   -2.7660   -1.0940   -1.2100 H   0  0  0  0  0  0  0  0  0  0  0  0
   -3.4420   -4.3700    1.7500 H   0  0  0  0  0  0  0  0  0  0  0  0
   -2.1670   -2.4830   -2.1710 H   0  0  0  0  0  0  0  0  0  0  0  0
   -3.9420   -3.5820    1.1910 C   0  0  0  0  0  0  0  0  0  0  0  0
    3.5680    1.0830   -1.4190 C   0  0  0  0  0  0  0  0  0  0  0  0
   -2.9240    2.1270    0.3350 H   0  0  0  0  0  0  0  0  0  0  0  0
   -1.1000    3.0530    0.1500 C   0  0  0  0  0  0  0  0  0  0  0  0
  5  3  1  0
  7  4  1  0
  7  1  1  0
 10  5  1  0
 13 11  1  0
 19 16  1  0
 20 17  1  0
 20  2  1  0
 25 22  1  0
 25  7  1  0
 26 17  1  0
 27 11  1  0
 28 19  1  0
 28 10  2  0
 32 16  2  0
 33 20  1  0
 36 18  1  0
 38 37  1  1
 38 36  1  0
 39 11  1  0
 40  9  1  0
 41  6  1  0
 41 17  1  0
 42 36  1  0
 42 23  1  0
 42 15  1  0
 44 25  1  0
 44  5  2  0
 45 41  1  0
 46 27  1  0
 46 30  1  0
 46 14  1  0
 46  8  1  0
 47 40  1  0
 49 17  1  0
 50 36  1  0
 51 31  1  0
 51 27  1  0
 52 27  1  0
 53 42  1  0
 54  7  1  0
 56 47  1  0
 56 16  1  0
 57 28  1  0
 57 24  1  0
 57 21  1  0
 58 41  1  0
 25 59  1  1
 60 19  1  0
 61 57  1  0
 62 55  1  0
 62 44  1  0
 62 38  1  0
 62 12  1  0
 63 11  1  0
 64 40  1  0
 66 40  1  0
 67 65  1  0
 67 56  1  0
 67 35  1  0
 67 20  1  0
 68 43  1  0
 68 38  1  0
 68 34  1  0
 68 29  1  0
 69 21  1  0
 70 51  1  0
 70 48  2  0
 70 21  1  0
M  CHG  3  22  -1  37  -1  44   1
M  END
$$$$

     RDKit          3D

 70 71  0  0  0  0  0  0  0  0999 V2000
    7.0030    0.3860   -3.9780 H   0  0  0  0  0  0  0  0  0  0  0  0
    0.6600    1.7640    0.6610 N   0  0  0  0  0  0  0  0  0  0  0  0
   -1.0860    5.9570   -1.3780 H   0  0  0  0  0  0  0  0  0  0  0  0
    4.8530    1.1460    1.3320 O   0  0  0  0  0  0  0  0  0  0  0  0
   -3.0450   -6.3480    2.0880 H   0  0  0  0  0  0  0  0  0  0  0  0
   -0.1820    5.4140   -1.0930 C   0  0  0  0  0  0  0  0  0  0  0  0
   -2.4330   -3.4600    1.1780 C   0  0  0  0  0  0  0  0  0  0  0  0
   -3.1730   -0.0480   -0.4290 O   0  0  0  0  0  0  0  0  0  0  0  0
   -3.8830   -7.0170   -0.1190 H   0  0  0  0  0  0  0  0  0  0  0  0
    6.5060   -0.4820   -1.9570 C   0  0  0  0  0  0  0  0  0  0  0  0
    7.4830   -0.7370   -1.5920 H   0  0  0  0  0  0  0  0  0  0  0  0
   -0.6480    3.6970    1.2970 H   0  0  0  0  0  0  0  0  0  0  0  0
    6.4750    0.4030   -3.1130 C   0  0  0  0  0  0  0  0  0  0  0  0
    3.8510   -0.1870   -1.2880 H   0  0  0  0  0  0  0  0  0  0  0  0
   -1.5540   -5.7070    1.3810 H   0  0  0  0  0  0  0  0  0  0  0  0
   -3.1530   -2.1330    1.1920 C   0  0  0  0  0  0  0  0  0  0  0  0
   -2.3680   -6.0620   -1.2350 C   0  0  0  0  0  0  0  0  0  0  0  0
   -0.0500    2.4320   -2.0960 H   0  0  0  0  0  0  0  0  0  0  0  0
   -3.8290   -2.1290    2.0630 H   0  0  0  0  0  0  0  0  0  0  0  0
   -1.5090    1.0930    0.5860 N   0  0  0  0  0  0  0  0  0  0  0  0
    2.1280    2.1990    2.5790 C   0  0  0  0  0  0  0  0  0  0  0  0
    4.7540    1.6870   -2.8810 H   0  0  0  0  0  0  0  0  0  0  0  0
    1.7230    3.2000    2.7070 H   0  0  0  0  0  0  0  0  0  0  0  0
   -0.3520    4.0130   -0.7700 N   0  0  0  0  0  0  0  0  0  0  0  0
   -0.2180    0.9080    1.0970 C   0  0  0  0  0  0  0  0  0  0  0  0
   -2.9850    3.0640   -1.7030 H   0  0  0  0  0  0  0  0  0  0  0  0
    5.7880    0.6470   -1.2130 C   0  0  0  0  0  0  0  0  0  0  0  0
    2.0270    1.7640    1.1080 C   0  0  1  0  0  0  0  0  0  0  0  0
   -1.4540   -1.1430    1.9570 H   0  0  0  0  0  0  0  0  0  0  0  0
    0.3750    2.4420   -0.0680 H   0  0  0  0  0  0  0  0  0  0  0  0
   -4.0260    1.7890    0.5940 H   0  0  0  0  0  0  0  0  0  0  0  0
   -1.2280    3.7580    0.3760 C   0  0  0  0  0  0  0  0  0  0  0  0
    1.5890    1.5030    3.2140 H   0  0  0  0  0  0  0  0  0  0  0  0
   -2.7240   -6.3640   -2.1520 H   0  0  0  0  0  0  0  0  0  0  0  0
    2.6770    0.3690    0.8660 C   0  0  0  0  0  0  0  0  0  0  0  0
    2.5750   -0.2630    1.7460 H   0  0  0  0  0  0  0  0  0  0  0  0
    2.5380    2.5030    0.4880 H   0  0  0  0  0  0  0  0  0  0  0  0
    6.2680    2.4380   -2.4810 H   0  0  0  0  0  0  0  0  0  0  0  0
    2.1650   -0.1780    0.0260 H   0  0  0  0  0  0  0  0  0  0  0  0
   -3.3510    2.6030    0.8590 C   0  0  0  0  0  0  0  0  0  0  0  0
    5.9150   -1.4000   -2.0520 H   0  0  0  0  0  0  0  0  0  0  0  0
   -3.8380    3.5300    0.5790 H   0  0  0  0  0  0  0  0  0  0  0  0
   -2.2760   -7.6700    0.1260 H   0  0  0  0  0  0  0  0  0  0  0  0
   -2.8320   -6.7480   -0.0190 C   0  0  0  0  0  0  0  0  0  0  0  0
   -1.9260    4.5880    0.5110 H   0  0  0  0  0  0  0  0  0  0  0  0
   -4.6330   -4.4850    0.7700 C   0  0  0  0  0  0  0  0  0  0  0  0
   -4.7900   -4.2270   -0.2840 H   0  0  0  0  0  0  0  0  0  0  0  0
   -0.9580    3.7410   -2.7880 H   0  0  0  0  0  0  0  0  0  0  0  0
    6.3680    1.0560   -0.3980 H   0  0  0  0  0  0  0  0  0  0  0  0
    5.7430    1.5030   -2.4970 C   0  0  0  0  0  0  0  0  0  0  0  0
    0.0630    0.0000    1.8290 O   0  0  0  0  0  0  0  0  0  0  0  0
   -5.0680   -5.4480    0.9790 H   0  0  0  0  0  0  0  0  0  0  0  0
   -2.0320    2.4410    0.1200 C   0  0  2  0  0  0  0  0  0  0  0  0
   -3.2090   -4.5390    1.0860 N   0  0  0  0  0  0  0  0  0  0  0  0
   -2.2550   -1.0210    1.3340 N   0  0  0  0  0  0  0  0  0  0  0  0
   -5.1290   -3.7420    1.3760 H   0  0  0  0  0  0  0  0  0  0  0  0
    0.5320    5.4930   -1.9080 H   0  0  0  0  0  0  0  0  0  0  0  0
    3.1650    2.2050    2.8750 H   0  0  0  0  0  0  0  0  0  0  0  0
   -2.1170    2.4730   -1.4170 C   0  0  0  0  0  0  0  0  0  0  0  0
   -2.2270    1.4770   -1.8450 H   0  0  0  0  0  0  0  0  0  0  0  0
    0.2290    5.9020   -0.2190 H   0  0  0  0  0  0  0  0  0  0  0  0
   -1.5900   -5.3870   -1.1700 H   0  0  0  0  0  0  0  0  0  0  0  0
    4.4930    0.2860   -0.6970 N   0  0  0  0  0  0  0  0  0  0  0  0
   -0.8180    3.1730   -1.8710 C   0  0  0  0  0  0  0  0  0  0  0  0
    4.1260    0.6270    0.5610 C   0  0  0  0  0  0  0  0  0  0  0  0
   -2.6160   -5.8650    1.2150 C   0  0  0  0  0  0  0  0  0  0  0  0
   -1.2380   -3.5010    1.2820 O   0  0  0  0  0  0  0  0  0  0  0  0
   -2.3530   -0.0050    0.4500 C   0  0  0  0  0  0  0  0  0  0  0  0
   -3.7320   -1.9840    0.2840 H   0  0  0  0  0  0  0  0  0  0  0  0
   -3.1810    2.6020    1.9340 H   0  0  0  0  0  0  0  0  0  0  0  0
  6  3  1  0
 11 10  1  0
 13 10  1  0
 13  1  1  0
 16  7  1  0
 19 16  1  0
 23 21  1  0
 24  6  1  0
 25 20  1  0
 25  2  1  0
 27 10  1  0
 28 21  1  0
 28  2  1  0
 30  2  1  0
 32 24  1  0
 32 12  1  0
 33 21  1  0
 34 17  1  0
 35 28  1  0
 36 35  1  0
 28 37  1  6
 39 35  1  0
 40 31  1  0
 41 10  1  0
 42 40  1  0
 44 43  1  0
 44 17  1  0
 44  9  1  0
 45 32  1  0
 47 46  1  0
 49 27  1  0
 50 22  1  0
 50 38  1  0
 50 27  1  0
 50 13  1  0
 51 25  2  0
 52 46  1  0
 53 40  1  0
 53 32  1  0
 53 20  1  6
 54 46  1  0
 54  7  1  0
 55 29  1  0
 55 16  1  0
 56 46  1  0
 57  6  1  0
 58 21  1  0
 59 53  1  0
 59 26  1  0
 60 59  1  0
 61  6  1  0
 62 17  1  0
 63 14  1  0
 63 27  1  0
 64 59  1  0
 64 48  1  0
 64 24  1  0
 64 18  1  0
 65 63  1  0
 65 35  1  0
 65  4  2  0
 66 44  1  0
 66 15  1  0
 66  5  1  0
 66 54  1  0
 67  7  2  0
 68 55  1  0
 68 20  1  0
 68  8  2  0
 69 16  1  0
 70 40  1  0
M  CHG  2  13  -1  17   1
M  END
$$$$

     RDKit          3D

 70 71  0  0  0  0  0  0  0  0999 V2000
   -1.3400   -1.7500    0.5360 N   0  0  0  0  0  0  0  0  0  0  0  0
   -0.9920    4.2650    0.1780 C   0  0  0  0  0  0  0  0  0  0  0  0
   -2.4470   -3.7220    0.8300 N   0  0  0  0  0  0  0  0  0  0  0  0
   -2.7830   -6.2140   -1.1890 H   0  0  0  0  0  0  0  0  0  0  0  0
   -3.6800   -4.5180    0.8610 C   0  0  0  0  0  0  0  0  0  0  0  0
    1.2970    3.8890    2.8890 H   0  0  0  0  0  0  0  0  0  0  0  0
   -1.8920    3.7440   -1.7710 O   0  0  0  0  0  0  0  0  0  0  0  0
   -3.4750   -7.8660    0.5090 H   0  0  0  0  0  0  0  0  0  0  0  0
    1.7100   -1.7140    0.0880 H   0  0  0  0  0  0  0  0  0  0  0  0
   -0.9390    1.7250    2.8460 O   0  0  0  0  0  0  0  0  0  0  0  0
    6.2600    1.8850   -2.4230 H   0  0  0  0  0  0  0  0  0  0  0  0
    4.2800   -2.4980    0.1090 H   0  0  0  0  0  0  0  0  0  0  0  0
   -2.2750    3.6510    0.7600 C   0  0  0  0  0  0  0  0  0  0  0  0
   -5.3350   -4.6990   -0.5340 H   0  0  0  0  0  0  0  0  0  0  0  0
    6.2310   -2.0650   -1.1450 H   0  0  0  0  0  0  0  0  0  0  0  0
   -1.4310    6.1010    1.2140 H   0  0  0  0  0  0  0  0  0  0  0  0
   -1.1050    5.7900    0.2280 C   0  0  0  0  0  0  0  0  0  0  0  0
    6.5170   -0.5400   -2.8070 H   0  0  0  0  0  0  0  0  0  0  0  0
    3.6130    0.3720   -2.2720 H   0  0  0  0  0  0  0  0  0  0  0  0
    1.2530    0.2050    0.5410 N   0  0  0  0  0  0  0  0  0  0  0  0
   -1.1510    0.0590   -0.5380 H   0  0  0  0  0  0  0  0  0  0  0  0
   -0.4280    4.2110    3.0390 H   0  0  0  0  0  0  0  0  0  0  0  0
   -4.2480   -4.7690   -0.5480 C   0  0  0  0  0  0  0  0  0  0  0  0
    0.2360    3.7950    1.0080 C   0  0  2  0  0  0  0  0  0  0  0  0
    4.5750    0.5060   -2.6940 C   0  0  0  0  0  0  0  0  0  0  0  0
    6.0770   -0.6890   -0.0650 H   0  0  0  0  0  0  0  0  0  0  0  0
   -0.4590    2.7510   -1.2940 H   0  0  0  0  0  0  0  0  0  0  0  0
    1.1280    4.0050    0.4320 H   0  0  0  0  0  0  0  0  0  0  0  0
    3.4540   -0.5590    0.1750 C   0  0  0  0  0  0  0  0  0  0  0  0
    2.0910   -0.8220    0.2680 N   0  0  0  0  0  0  0  0  0  0  0  0
    5.3310    1.5450   -0.9350 H   0  0  0  0  0  0  0  0  0  0  0  0
   -0.8470    3.7980   -1.3000 C   0  0  1  0  0  0  0  0  0  0  0  0
   -4.4090   -3.9530    1.4470 H   0  0  0  0  0  0  0  0  0  0  0  0
   -3.9770   -6.9040    0.4720 C   0  0  0  0  0  0  0  0  0  0  0  0
   -5.0320   -7.0750    0.6840 H   0  0  0  0  0  0  0  0  0  0  0  0
    1.7810    1.0620    0.5440 H   0  0  0  0  0  0  0  0  0  0  0  0
   -3.8220   -6.1960   -0.8730 C   0  0  0  0  0  0  0  0  0  0  0  0
    3.9300    0.4380    0.6090 O   0  0  0  0  0  0  0  0  0  0  0  0
   -3.8850   -4.0320   -1.2630 H   0  0  0  0  0  0  0  0  0  0  0  0
   -3.3960   -5.9040    1.4630 C   0  0  0  0  0  0  0  0  0  0  0  0
   -0.3960    5.6190   -2.4020 H   0  0  0  0  0  0  0  0  0  0  0  0
   -1.5790   -4.1540    1.0070 H   0  0  0  0  0  0  0  0  0  0  0  0
   -4.4210   -6.6450   -1.6550 H   0  0  0  0  0  0  0  0  0  0  0  0
    5.6410   -1.1800   -0.9390 C   0  0  0  0  0  0  0  0  0  0  0  0
   -2.3260   -6.0700    1.5540 H   0  0  0  0  0  0  0  0  0  0  0  0
    0.2020    4.1500   -3.1370 H   0  0  0  0  0  0  0  0  0  0  0  0
    0.6280    5.4540    2.3420 H   0  0  0  0  0  0  0  0  0  0  0  0
   -2.5480   -2.3920    0.5590 C   0  0  0  0  0  0  0  0  0  0  0  0
   -3.8280   -6.0010    2.4570 H   0  0  0  0  0  0  0  0  0  0  0  0
    4.5380    0.6610   -3.7550 H   0  0  0  0  0  0  0  0  0  0  0  0
    0.0420    0.1130    1.3510 C   0  0  1  0  0  0  0  0  0  0  0  0
   -1.2250   -0.3190    0.5180 C   0  0  0  0  0  0  0  0  0  0  0  0
    1.0170    4.8340   -1.7570 H   0  0  0  0  0  0  0  0  0  0  0  0
   -0.5770   -2.2420    0.8560 H   0  0  0  0  0  0  0  0  0  0  0  0
    0.1980   -0.6780    2.3060 O   0  0  0  0  0  0  0  0  0  0  0  0
    5.5830    1.2320   -1.9200 C   0  0  0  0  0  0  0  0  0  0  0  0
   -3.1420    4.0940    0.2820 H   0  0  0  0  0  0  0  0  0  0  0  0
   -2.3420    3.8240    1.8300 H   0  0  0  0  0  0  0  0  0  0  0  0
    0.2980    2.3760    1.1380 O   0  0  0  0  0  0  0  0  0  0  0  0
   -3.5900   -1.8500    0.2890 O   0  0  0  0  0  0  0  0  0  0  0  0
   -2.1430    0.1180    0.9200 H   0  0  0  0  0  0  0  0  0  0  0  0
    0.4330    4.3970    2.4040 C   0  0  0  0  0  0  0  0  0  0  0  0
   -2.3130    2.5760    0.5890 H   0  0  0  0  0  0  0  0  0  0  0  0
    5.7400   -0.2450   -2.1200 C   0  0  0  0  0  0  0  0  0  0  0  0
    3.6640   -1.9210   -1.4400 H   0  0  0  0  0  0  0  0  0  0  0  0
   -0.2380    1.5120    1.8900 C   0  0  0  0  0  0  0  0  0  0  0  0
    4.2210   -1.6300   -0.5540 C   0  0  0  0  0  0  0  0  0  0  0  0
   -1.8460    6.1370   -0.5000 H   0  0  0  0  0  0  0  0  0  0  0  0
    0.0540    4.6530   -2.1940 C   0  0  0  0  0  0  0  0  0  0  0  0
   -0.1610    6.2710   -0.0010 H   0  0  0  0  0  0  0  0  0  0  0  0
  5  3  1  0
 13  2  1  0
 17  2  1  0
 17 16  1  0
 23 14  1  0
 23  5  1  0
 24  2  1  0
 25 19  1  0
 24 28  1  6
 30 29  1  0
 30 20  1  0
 30  9  1  0
 32 27  1  1
 32  7  1  0
 32  2  1  0
 33  5  1  0
 34  8  1  0
 35 34  1  0
 36 20  1  0
 37 34  1  0
 37  4  1  0
 37 23  1  0
 38 29  2  0
 39 23  1  0
 40 34  1  0
 40  5  1  0
 42  3  1  0
 43 37  1  0
 44 26  1  0
 44 15  1  0
 45 40  1  0
 48  3  1  0
 48  1  1  0
 49 40  1  0
 50 25  1  0
 51 20  1  0
 52 51  1  0
 52 21  1  0
 52  1  1  0
 54  1  1  0
 51 55  1  1
 56 31  1  0
 56 25  1  0
 56 11  1  0
 57 13  1  0
 58 13  1  0
 59 24  1  0
 60 48  2  0
 61 52  1  0
 62 24  1  0
 62 22  1  0
 62  6  1  0
 62 47  1  0
 63 13  1  0
 64 25  1  0
 64 56  1  0
 64 44  1  0
 64 18  1  0
 66 59  1  0
 66 51  1  0
 66 10  2  0
 67 65  1  0
 67 29  1  0
 67 12  1  0
 67 44  1  0
 68 17  1  0
 69 53  1  0
 69 46  1  0
 69 32  1  0
 69 41  1  0
 70 17  1  0
M  CHG  2   7  -1  55  -1
M  END
$$$$

     RDKit          3D

 70 72  0  0  0  0  0  0  0  0999 V2000
    0.1790   -4.4700    1.5840 H   0  0  0  0  0  0  0  0  0  0  0  0
   -0.9900   -2.7300    2.8070 H   0  0  0  0  0  0  0  0  0  0  0  0
   -3.3090   -1.9900    2.1170 O   0  0  0  0  0  0  0  0  0  0  0  0
   -5.4760   -3.9530   -1.0040 H   0  0  0  0  0  0  0  0  0  0  0  0
   -1.1640    3.8440   -0.0520 C   0  0  0  0  0  0  0  0  0  0  0  0
   -0.5450   -3.8700    1.0490 C   0  0  0  0  0  0  0  0  0  0  0  0
   -2.1210    2.7550    0.5230 C   0  0  2  0  0  0  0  0  0  0  0  0
   -2.6610    4.7080   -1.1120 H   0  0  0  0  0  0  0  0  0  0  0  0
    4.8320   -0.9860    0.5590 C   0  0  0  0  0  0  0  0  0  0  0  0
   -1.5330   -3.2660    2.0220 C   0  0  0  0  0  0  0  0  0  0  0  0
    0.0900    5.7670   -1.0730 H   0  0  0  0  0  0  0  0  0  0  0  0
   -4.0940   -4.9120   -1.5320 H   0  0  0  0  0  0  0  0  0  0  0  0
    4.2420   -2.2810   -1.1470 H   0  0  0  0  0  0  0  0  0  0  0  0
    5.2190   -0.1890   -2.1700 H   0  0  0  0  0  0  0  0  0  0  0  0
   -1.9240    1.0200   -1.1540 C   0  0  0  0  0  0  0  0  0  0  0  0
    5.1430    1.7160   -1.0590 C   0  0  0  0  0  0  0  0  0  0  0  0
    4.4870    1.8870   -2.3900 C   0  0  0  0  0  0  0  0  0  0  0  0
   -1.7950   -1.0650    1.0730 N   0  0  0  0  0  0  0  0  0  0  0  0
   -3.1960   -2.8770    0.1390 C   0  0  2  0  0  0  0  0  0  0  0  0
   -1.9020   -0.0500   -1.4260 H   0  0  0  0  0  0  0  0  0  0  0  0
    3.4560    1.6670   -2.4720 H   0  0  0  0  0  0  0  0  0  0  0  0
   -4.7510   -4.6930   -0.7020 C   0  0  0  0  0  0  0  0  0  0  0  0
    5.0180   -1.3160    1.5710 H   0  0  0  0  0  0  0  0  0  0  0  0
    3.8400   -1.8260   -0.2510 C   0  0  0  0  0  0  0  0  0  0  0  0
   -4.6180   -3.9950    1.3300 H   0  0  0  0  0  0  0  0  0  0  0  0
   -0.1730    1.3430    0.6710 N   0  0  0  0  0  0  0  0  0  0  0  0
   -3.4300    0.3460    1.5280 O   0  0  0  0  0  0  0  0  0  0  0  0
    0.1770    2.2790    0.4120 H   0  0  0  0  0  0  0  0  0  0  0  0
   -3.2400   -4.9600    0.7970 H   0  0  0  0  0  0  0  0  0  0  0  0
   -0.8950    5.8010   -2.5300 H   0  0  0  0  0  0  0  0  0  0  0  0
   -4.0960    0.8810   -1.0490 H   0  0  0  0  0  0  0  0  0  0  0  0
    2.0820    2.2830    1.4410 H   0  0  0  0  0  0  0  0  0  0  0  0
   -5.2630   -5.6130   -0.4290 H   0  0  0  0  0  0  0  0  0  0  0  0
    1.9300   -0.6920   -0.1210 H   0  0  0  0  0  0  0  0  0  0  0  0
    3.1540    0.5000    1.8520 C   0  0  1  0  0  0  0  0  0  0  0  0
   -0.7990   -1.1290    1.1530 H   0  0  0  0  0  0  0  0  0  0  0  0
    6.4860    0.9870   -2.6090 H   0  0  0  0  0  0  0  0  0  0  0  0
    5.8410    2.4680   -0.7550 H   0  0  0  0  0  0  0  0  0  0  0  0
    3.8770    0.2340    0.4760 C   0  0  0  0  0  0  0  0  0  0  0  0
   -3.5210    2.0280   -2.2610 H   0  0  0  0  0  0  0  0  0  0  0  0
    2.9520   -0.5800   -0.4770 C   0  0  0  0  0  0  0  0  0  0  0  0
   -2.5120   -2.2770    1.3850 C   0  0  2  0  0  0  0  0  0  0  0  0
   -3.3300    1.6360   -1.2660 C   0  0  0  0  0  0  0  0  0  0  0  0
   -3.9480   -2.0890   -0.2940 O   0  0  0  0  0  0  0  0  0  0  0  0
   -2.4460   -3.0530   -0.6510 H   0  0  0  0  0  0  0  0  0  0  0  0
   -1.0230   -4.5140    0.3340 H   0  0  0  0  0  0  0  0  0  0  0  0
    3.3490   -2.5970    0.3320 H   0  0  0  0  0  0  0  0  0  0  0  0
   -1.2030    1.5480   -1.7760 H   0  0  0  0  0  0  0  0  0  0  0  0
    0.5950   -0.4130    1.8980 O   0  0  0  0  0  0  0  0  0  0  0  0
   -1.7060    4.7400   -0.9070 N   0  0  0  0  0  0  0  0  0  0  0  0
   -1.3310    6.7950   -1.1360 H   0  0  0  0  0  0  0  0  0  0  0  0
   -0.0080   -3.1080    0.5080 H   0  0  0  0  0  0  0  0  0  0  0  0
   -4.2060    3.2160    0.0190 H   0  0  0  0  0  0  0  0  0  0  0  0
   -1.5710    1.2600    0.3520 C   0  0  1  0  0  0  0  0  0  0  0  0
    5.7800   -0.7930    0.0770 H   0  0  0  0  0  0  0  0  0  0  0  0
    3.8790    0.9830    2.7920 O   0  0  0  0  0  0  0  0  0  0  0  0
   -2.0940   -4.0460    2.5230 H   0  0  0  0  0  0  0  0  0  0  0  0
    4.7540    2.7350   -2.9680 H   0  0  0  0  0  0  0  0  0  0  0  0
   -0.0030    3.9410    0.2830 O   0  0  0  0  0  0  0  0  0  0  0  0
   -3.3590    2.6870   -0.2440 C   0  0  0  0  0  0  0  0  0  0  0  0
    2.9320   -0.2010   -1.4860 H   0  0  0  0  0  0  0  0  0  0  0  0
    4.4730    1.4130    0.1090 O   0  0  0  0  0  0  0  0  0  0  0  0
    2.7720   -0.5010    2.2240 H   0  0  0  0  0  0  0  0  0  0  0  0
    5.5080    0.8370   -2.1800 C   0  0  0  0  0  0  0  0  0  0  0  0
   -0.9220    5.8440   -1.4480 C   0  0  0  0  0  0  0  0  0  0  0  0
   -3.9500   -4.1820    0.4860 C   0  0  0  0  0  0  0  0  0  0  0  0
    1.9460    1.3020    1.6180 N   0  0  0  0  0  0  0  0  0  0  0  0
   -2.2690    2.9420    1.5850 H   0  0  0  0  0  0  0  0  0  0  0  0
   -2.3440    0.1500    1.0870 C   0  0  0  0  0  0  0  0  0  0  0  0
    0.7290    0.6730    1.4170 C   0  0  0  0  0  0  0  0  0  0  0  0
  6  1  1  0
  7  5  1  0
 10  6  1  0
 10  2  1  0
 17 16  1  0
 20 15  1  0
 21 17  1  0
 22  4  1  0
 22 12  1  0
 23  9  1  0
 24 13  1  0
 24  9  1  0
 28 26  1  0
 33 22  1  0
 36 18  1  0
 38 16  1  0
 39 35  1  0
 39  9  1  0
 41 39  1  0
 41 34  1  0
 41 24  1  0
 42 19  1  0
 42 18  1  0
 42 10  1  0
 42  3  1  1
 43 40  1  0
 43 31  1  0
 43 15  1  0
 44 19  1  0
 19 45  1  6
 46  6  1  0
 47 24  1  0
 48 15  1  0
 50  8  1  0
 50  5  1  0
 52  6  1  0
 54 26  1  6
 54 15  1  0
 54  7  1  0
 55  9  1  0
 56 35  1  0
 57 10  1  0
 58 17  1  0
 59  5  2  0
 60 53  1  0
 60 43  1  0
 60  7  1  0
 61 41  1  0
 62 39  1  0
 62 16  1  0
 35 63  1  1
 64 17  1  0
 64 16  1  0
 64 14  1  0
 64 37  1  0
 65 50  1  0
 65 51  1  0
 65 30  1  0
 65 11  1  0
 66 29  1  0
 66 25  1  0
 66 22  1  0
 66 19  1  0
 67 35  1  0
 67 32  1  0
  7 68  1  1
 69 54  1  0
 69 27  2  0
 69 18  1  0
 70 67  1  0
 70 49  2  0
 70 26  1  0
M  CHG  4   3  -1  44  -1  56  -1  60   1
M  END
$$$$

     RDKit          3D

 70 72  0  0  0  0  0  0  0  0999 V2000
    0.3610    4.6550   -1.2940 H   0  0  0  0  0  0  0  0  0  0  0  0
   -4.4080   -5.3310   -0.2560 C   0  0  0  0  0  0  0  0  0  0  0  0
   -1.2820   -2.1500    0.1440 C   0  0  2  0  0  0  0  0  0  0  0  0
    3.2950   -0.1460    1.8650 C   0  0  0  0  0  0  0  0  0  0  0  0
   -3.9460   -5.2590    1.8350 H   0  0  0  0  0  0  0  0  0  0  0  0
   -3.1730    3.7750    1.8910 H   0  0  0  0  0  0  0  0  0  0  0  0
    3.6360   -2.9770   -1.8320 H   0  0  0  0  0  0  0  0  0  0  0  0
   -2.0400   -1.3390   -2.0690 H   0  0  0  0  0  0  0  0  0  0  0  0
    3.9980    0.1540    2.6330 H   0  0  0  0  0  0  0  0  0  0  0  0
    1.7990   -2.1390    0.0590 C   0  0  0  0  0  0  0  0  0  0  0  0
   -0.9570   -3.1200   -1.7500 H   0  0  0  0  0  0  0  0  0  0  0  0
   -0.9290    0.0420   -2.0960 H   0  0  0  0  0  0  0  0  0  0  0  0
   -1.7910    2.1280   -1.4630 H   0  0  0  0  0  0  0  0  0  0  0  0
    3.7800   -0.9890    0.7600 C   0  0  1  0  0  0  0  0  0  0  0  0
   -1.6120    0.0710    0.8520 C   0  0  0  0  0  0  0  0  0  0  0  0
   -3.6320   -2.2570   -0.2250 O   0  0  0  0  0  0  0  0  0  0  0  0
    0.2020    2.3870    3.5080 H   0  0  0  0  0  0  0  0  0  0  0  0
   -3.4110    3.3900    0.8950 C   0  0  0  0  0  0  0  0  0  0  0  0
    0.9360   -2.2990   -1.1660 C   0  0  0  0  0  0  0  0  0  0  0  0
   -0.6630    3.7010    1.2410 C   0  0  0  0  0  0  0  0  0  0  0  0
   -1.6230    1.5860    0.6900 C   0  0  1  0  0  0  0  0  0  0  0  0
   -4.4570    3.6050    0.6910 H   0  0  0  0  0  0  0  0  0  0  0  0
    5.1760    1.2270   -3.3410 H   0  0  0  0  0  0  0  0  0  0  0  0
    4.8070   -1.3340    0.8830 H   0  0  0  0  0  0  0  0  0  0  0  0
   -1.7460   -0.4280   -1.5580 C   0  0  0  0  0  0  0  0  0  0  0  0
    0.4060    3.9280    1.1960 H   0  0  0  0  0  0  0  0  0  0  0  0
   -1.8550   -4.3710    1.2130 H   0  0  0  0  0  0  0  0  0  0  0  0
   -3.6670    1.4570   -0.0160 H   0  0  0  0  0  0  0  0  0  0  0  0
    3.3100   -1.2570   -2.1820 H   0  0  0  0  0  0  0  0  0  0  0  0
    1.3750   -2.2590    1.1910 O   0  0  0  0  0  0  0  0  0  0  0  0
    5.4410    1.5470   -2.3590 C   0  0  0  0  0  0  0  0  0  0  0  0
   -2.0270   -0.4220    1.8890 O   0  0  0  0  0  0  0  0  0  0  0  0
   -0.8690    2.3350    1.7080 N   0  0  0  0  0  0  0  0  0  0  0  0
   -2.6250    0.2210   -1.5790 H   0  0  0  0  0  0  0  0  0  0  0  0
    0.1310    1.8070    2.5570 C   0  0  0  0  0  0  0  0  0  0  0  0
    3.1020   -1.8440   -0.1670 N   0  0  0  0  0  0  0  0  0  0  0  0
   -0.1330    2.0480   -0.8620 H   0  0  0  0  0  0  0  0  0  0  0  0
   -0.7450    5.8350   -0.6440 H   0  0  0  0  0  0  0  0  0  0  0  0
    1.1530    1.9040    2.1490 H   0  0  0  0  0  0  0  0  0  0  0  0
    4.7940   -1.7450   -1.3600 H   0  0  0  0  0  0  0  0  0  0  0  0
   -0.4070   -2.9440   -0.8290 C   0  0  0  0  0  0  0  0  0  0  0  0
    1.4420   -2.9280   -1.8880 H   0  0  0  0  0  0  0  0  0  0  0  0
    0.8100   -1.3090   -1.5960 H   0  0  0  0  0  0  0  0  0  0  0  0
   -2.6460   -2.7740    0.2230 C   0  0  0  0  0  0  0  0  0  0  0  0
   -1.1580    2.3150   -0.6110 C   0  0  0  0  0  0  0  0  0  0  0  0
    5.5130    2.6200   -2.3410 H   0  0  0  0  0  0  0  0  0  0  0  0
   -2.6710   -3.9650    0.8250 N   0  0  0  0  0  0  0  0  0  0  0  0
   -1.2140    4.8770   -2.0370 H   0  0  0  0  0  0  0  0  0  0  0  0
    4.4250    1.1090   -1.4760 O   0  0  0  0  0  0  0  0  0  0  0  0
    2.3020   -0.3330    2.2280 H   0  0  0  0  0  0  0  0  0  0  0  0
   -3.9860   -5.1540   -1.2090 H   0  0  0  0  0  0  0  0  0  0  0  0
   -3.1420    1.8990    0.8340 C   0  0  0  0  0  0  0  0  0  0  0  0
    2.4910    0.6590    0.0080 H   0  0  0  0  0  0  0  0  0  0  0  0
    4.5270    1.1610   -0.1400 C   0  0  0  0  0  0  0  0  0  0  0  0
   -2.6600    4.0930   -0.0950 O   0  0  0  0  0  0  0  0  0  0  0  0
   -1.1100    4.4270    1.9240 H   0  0  0  0  0  0  0  0  0  0  0  0
   -3.9130   -4.7120    0.9030 C   0  0  0  0  0  0  0  0  0  0  0  0
    6.3930    1.1400   -2.0430 H   0  0  0  0  0  0  0  0  0  0  0  0
   -4.8970   -6.2750   -0.1870 H   0  0  0  0  0  0  0  0  0  0  0  0
   -0.6850    4.8420   -1.0950 C   0  0  0  0  0  0  0  0  0  0  0  0
   -0.8400   -2.1890    1.1530 H   0  0  0  0  0  0  0  0  0  0  0  0
   -4.7960   -4.1740    0.5440 H   0  0  0  0  0  0  0  0  0  0  0  0
   -3.5190    1.4210    1.7450 H   0  0  0  0  0  0  0  0  0  0  0  0
   -0.0810    0.7810    2.8130 H   0  0  0  0  0  0  0  0  0  0  0  0
   -1.3720   -0.7450   -0.1940 N   0  0  0  0  0  0  0  0  0  0  0  0
    5.4030    1.6760    0.4280 O   0  0  0  0  0  0  0  0  0  0  0  0
    3.7420   -1.9610   -1.4760 C   0  0  0  0  0  0  0  0  0  0  0  0
    3.4320    0.4470    0.5020 C   0  0  2  0  0  0  0  0  0  0  0  0
   -0.2060   -3.9220   -0.3780 H   0  0  0  0  0  0  0  0  0  0  0  0
   -1.2870    3.7830   -0.1700 C   0  0  1  0  0  0  0  0  0  0  0  0
  9  4  1  0
 14  4  1  0
 18  6  1  0
 19 10  1  0
 21 15  1  6
 22 18  1  0
 14 24  1  1
 25 12  1  0
 25  8  1  0
 26 20  1  0
 30 10  2  0
 31 23  1  0
 32 15  2  0
 33 21  1  0
 33 20  1  0
 34 25  1  0
 35 33  1  0
 35 17  1  0
 36 14  1  0
 36 10  1  0
 39 35  1  0
 41 19  1  0
 41 11  1  0
 41  3  1  0
 42 19  1  0
 43 19  1  0
 44 16  2  0
 44  3  1  0
 45 37  1  0
 45 21  1  0
 45 13  1  0
 46 31  1  0
 47 44  1  0
 47 27  1  0
 49 31  1  0
 50  4  1  0
 51  2  1  0
 52 28  1  0
 52 21  1  0
 52 18  1  0
 54 49  1  0
 55 18  1  0
 56 20  1  0
 57 47  1  0
 57  5  1  0
 57  2  1  0
 58 31  1  0
 59  2  1  0
 60 48  1  0
 60  1  1  0
 60 38  1  0
  3 61  1  1
 62 57  1  0
 63 52  1  0
 64 35  1  0
 65 25  1  0
 65 15  1  0
 65  3  1  0
 66 54  2  0
 67 40  1  0
 67 36  1  0
 67 29  1  0
 67  7  1  0
 68 54  1  0
 68 53  1  6
 68 14  1  0
 68  4  1  0
 69 41  1  0
 70 60  1  6
 70 55  1  0
 70 45  1  0
 70 20  1  0
M  CHG  1   2   1
M  END
$$$$

     RDKit          3D

 70 69  0  0  0  0  0  0  0  0999 V2000
    3.7980   -1.5700    1.1850 C   0  0  0  0  0  0  0  0  0  0  0  0
   -3.0970   -2.4740   -0.2540 C   0  0  0  0  0  0  0  0  0  0  0  0
    0.0190    1.2620    3.4900 O   0  0  0  0  0  0  0  0  0  0  0  0
   -3.2840    3.5950    0.1300 C   0  0  0  0  0  0  0  0  0  0  0  0
    2.4850   -3.0550    0.3290 H   0  0  0  0  0  0  0  0  0  0  0  0
   -4.1240   -6.4540   -0.5460 H   0  0  0  0  0  0  0  0  0  0  0  0
   -5.5020   -3.8490    0.2600 H   0  0  0  0  0  0  0  0  0  0  0  0
    4.8610   -1.3480    1.1830 H   0  0  0  0  0  0  0  0  0  0  0  0
   -3.3360    0.1260   -0.8420 H   0  0  0  0  0  0  0  0  0  0  0  0
   -3.5020    3.8460    1.1720 H   0  0  0  0  0  0  0  0  0  0  0  0
    0.0600   -1.5550   -1.2980 H   0  0  0  0  0  0  0  0  0  0  0  0
    4.1700   -3.5240    0.3810 H   0  0  0  0  0  0  0  0  0  0  0  0
   -4.0690   -4.9750   -1.5030 H   0  0  0  0  0  0  0  0  0  0  0  0
   -1.6150    0.3640   -1.1310 H   0  0  0  0  0  0  0  0  0  0  0  0
   -5.4640   -5.2730    1.3100 H   0  0  0  0  0  0  0  0  0  0  0  0
    3.0570   -0.3460    0.8790 N   0  0  0  0  0  0  0  0  0  0  0  0
    3.8710    0.7040    0.3040 C   0  0  1  0  0  0  0  0  0  0  0  0
    3.4910   -2.6980    0.1890 C   0  0  0  0  0  0  0  0  0  0  0  0
    4.9990   -0.5040   -1.1070 H   0  0  0  0  0  0  0  0  0  0  0  0
   -1.6190    5.0640   -1.4590 O   0  0  0  0  0  0  0  0  0  0  0  0
   -0.7790    6.0310   -2.0710 C   0  0  0  0  0  0  0  0  0  0  0  0
   -2.5400   -0.7750   -2.1330 H   0  0  0  0  0  0  0  0  0  0  0  0
   -1.0090    4.1550   -0.6950 C   0  0  0  0  0  0  0  0  0  0  0  0
    0.2490    3.6150    1.5550 H   0  0  0  0  0  0  0  0  0  0  0  0
   -0.0780    5.5420   -2.7340 H   0  0  0  0  0  0  0  0  0  0  0  0
    1.3500    1.2650    1.6520 N   0  0  0  0  0  0  0  0  0  0  0  0
    0.0170   -1.0550    0.7490 N   0  0  0  0  0  0  0  0  0  0  0  0
    4.9250    1.4400   -1.7290 O   0  0  0  0  0  0  0  0  0  0  0  0
   -0.6130    1.7300    0.0690 H   0  0  0  0  0  0  0  0  0  0  0  0
   -2.0550    1.6200    1.1020 H   0  0  0  0  0  0  0  0  0  0  0  0
    2.7980    0.1660    3.0700 O   0  0  0  0  0  0  0  0  0  0  0  0
   -2.9960   -5.2600    1.3370 H   0  0  0  0  0  0  0  0  0  0  0  0
    1.6340   -1.2200   -0.5840 H   0  0  0  0  0  0  0  0  0  0  0  0
   -2.6990   -3.5440    0.3960 O   0  0  0  0  0  0  0  0  0  0  0  0
   -0.4350    2.8400    1.9000 C   0  0  0  0  0  0  0  0  0  0  0  0
    2.0770    0.0370    1.8690 C   0  0  2  0  0  0  0  0  0  0  0  0
   -1.0610    3.2690    2.6740 H   0  0  0  0  0  0  0  0  0  0  0  0
   -1.4390    6.6820   -2.6250 H   0  0  0  0  0  0  0  0  0  0  0  0
   -2.1340   -1.4590   -0.2120 N   0  0  0  0  0  0  0  0  0  0  0  0
    1.5340    1.8080    0.8320 H   0  0  0  0  0  0  0  0  0  0  0  0
   -1.3550   -1.3230    0.9100 C   0  0  0  0  0  0  0  0  0  0  0  0
    6.1410    0.5320   -3.0510 H   0  0  0  0  0  0  0  0  0  0  0  0
    4.7750    0.9340    0.9230 O   0  0  0  0  0  0  0  0  0  0  0  0
    4.5540    1.0610   -3.6750 H   0  0  0  0  0  0  0  0  0  0  0  0
   -2.5740   -5.7840   -1.0360 H   0  0  0  0  0  0  0  0  0  0  0  0
   -1.8680    3.3550   -0.0310 N   0  0  0  0  0  0  0  0  0  0  0  0
   -3.5350   -4.7100    0.5630 C   0  0  0  0  0  0  0  0  0  0  0  0
    5.3750    1.3020   -3.0050 C   0  0  0  0  0  0  0  0  0  0  0  0
   -2.4050   -0.3500   -1.1410 C   0  0  0  0  0  0  0  0  0  0  0  0
    0.3420    1.7140    2.4480 C   0  0  0  0  0  0  0  0  0  0  0  0
   -1.8890   -1.3980    1.9610 O   0  0  0  0  0  0  0  0  0  0  0  0
   -4.8960   -3.7170    1.9080 H   0  0  0  0  0  0  0  0  0  0  0  0
   -4.9460   -4.3600    1.0410 C   0  0  0  0  0  0  0  0  0  0  0  0
    0.7460   -1.7770    2.7700 O   0  0  0  0  0  0  0  0  0  0  0  0
    5.8170    2.2490   -3.3040 H   0  0  0  0  0  0  0  0  0  0  0  0
    3.3080    1.6390    0.2460 H   0  0  0  0  0  0  0  0  0  0  0  0
   -3.8370    2.7060   -0.1270 H   0  0  0  0  0  0  0  0  0  0  0  0
    0.1840    4.0710   -0.6170 O   0  0  0  0  0  0  0  0  0  0  0  0
    3.4140    0.0450   -1.7100 H   0  0  0  0  0  0  0  0  0  0  0  0
   -3.5810    4.4140   -0.5020 H   0  0  0  0  0  0  0  0  0  0  0  0
   -0.2160    6.5830   -1.3220 H   0  0  0  0  0  0  0  0  0  0  0  0
   -3.5780   -5.5350   -0.7210 C   0  0  0  0  0  0  0  0  0  0  0  0
   -1.2780    2.2880    0.7380 C   0  0  0  0  0  0  0  0  0  0  0  0
    0.8630   -1.0670    1.8270 C   0  0  0  0  0  0  0  0  0  0  0  0
    0.5470    0.1250   -0.9460 H   0  0  0  0  0  0  0  0  0  0  0  0
    4.2890    0.3310   -1.1320 C   0  0  0  0  0  0  0  0  0  0  0  0
    3.6260   -2.3830   -0.8330 H   0  0  0  0  0  0  0  0  0  0  0  0
    0.5910   -0.9160   -0.6110 C   0  0  0  0  0  0  0  0  0  0  0  0
    3.5310   -1.8990    2.1900 H   0  0  0  0  0  0  0  0  0  0  0  0
   -4.0870   -2.3560   -0.8560 O   0  0  0  0  0  0  0  0  0  0  0  0
  8  1  1  0
 10  4  1  0
 16  1  1  0
 17 16  1  0
 18 12  1  0
 18  5  1  0
 18  1  1  0
 21 20  1  0
 23 20  1  0
 25 21  1  0
 34  2  1  0
 35 24  1  0
 36 31  1  1
 36 26  1  0
 36 16  1  0
 37 35  1  0
 38 21  1  0
 39  2  1  0
 40 26  1  0
 41 39  1  0
 41 27  1  0
 43 17  1  0
 46 23  1  0
 46  4  1  0
 47 34  1  0
 47 32  1  0
 48 44  1  0
 48 28  1  0
 48 42  1  0
 49 39  1  0
 49 22  1  0
 49 14  1  0
 49  9  1  0
 50 35  1  0
 50 26  1  0
 50  3  2  0
 51 41  2  0
 53 15  1  0
 53  7  1  0
 53 52  1  0
 53 47  1  0
 55 48  1  0
 17 56  1  6
 57  4  1  0
 58 23  2  0
 60  4  1  0
 61 21  1  0
 62 45  1  0
 62  6  1  0
 62 47  1  0
 62 13  1  0
 63 46  1  0
 63 35  1  0
 63 30  1  0
 63 29  1  0
 64 54  2  0
 64 36  1  0
 64 27  1  0
 66 59  1  0
 66 28  1  0
 66 19  1  0
 66 17  1  0
 67 18  1  0
 68 65  1  0
 68 33  1  0
 68 27  1  0
 68 11  1  0
 69  1  1  0
 70  2  2  0
M  CHG  2  31  -1  43  -1
M  END
$$$$
