 xtb: 6.6.1 (8d0f1dd)
          09222512193D

 46 50  0     0  0            999 V2000
   -3.7509   -1.5224    0.9001 C   0  0  0  0  0  0  0  0  0  0  0  0
   -5.0309   -0.8484    1.1942 C   0  0  0  0  0  0  0  0  0  0  0  0
   -5.2108    0.4600    0.5052 C   0  0  0  0  0  0  0  0  0  0  0  0
   -6.3809    1.1937    0.6911 C   0  0  0  0  0  0  0  0  0  0  0  0
   -6.5724    2.4080    0.0652 C   0  0  0  0  0  0  0  0  0  0  0  0
   -5.5761    2.9055   -0.7670 C   0  0  0  0  0  0  0  0  0  0  0  0
   -5.8072    4.4369   -1.5614 Cl  0  0  0  0  0  0  0  0  0  0  0  0
   -4.4106    2.2036   -0.9700 C   0  0  0  0  0  0  0  0  0  0  0  0
   -4.2190    0.9732   -0.3334 C   0  0  0  0  0  0  0  0  0  0  0  0
   -2.9530    0.2572   -0.5835 C   0  0  0  0  0  0  0  0  0  0  0  0
   -2.0971    0.7246   -1.3335 O   0  0  0  0  0  0  0  0  0  0  0  0
   -2.7907   -1.0363    0.0950 C   0  0  0  0  0  0  0  0  0  0  0  0
   -1.5464   -1.7914   -0.1424 C   0  0  0  0  0  0  0  0  0  0  0  0
   -0.3169   -1.1430   -0.1093 C   0  0  0  0  0  0  0  0  0  0  0  0
    0.8460   -1.8620   -0.3368 C   0  0  0  0  0  0  0  0  0  0  0  0
    2.1104   -1.2101   -0.3272 N   0  0  0  0  0  0  0  0  0  0  0  0
    2.9522   -1.6380   -1.2779 N   0  0  0  0  0  0  0  0  0  0  0  0
    4.0934   -1.1731   -1.4198 N   0  0  0  0  0  0  0  0  0  0  0  0
    4.5564   -0.1734   -0.6033 C   0  0  0  0  0  0  0  0  0  0  0  0
    5.8379    0.3495   -0.8033 C   0  0  0  0  0  0  0  0  0  0  0  0
    6.3305    1.3519    0.0076 C   0  0  0  0  0  0  0  0  0  0  0  0
    7.6940    1.9162   -0.1963 C   0  0  0  0  0  0  0  0  0  0  0  0
    5.5054    1.8294    1.0449 C   0  0  0  0  0  0  0  0  0  0  0  0
    6.0928    3.0842    2.0823 Cl  0  0  0  0  0  0  0  0  0  0  0  0
    4.2414    1.3336    1.2672 C   0  0  0  0  0  0  0  0  0  0  0  0
    3.7518    0.3243    0.4382 C   0  0  0  0  0  0  0  0  0  0  0  0
    2.4264   -0.2457    0.6278 C   0  0  0  0  0  0  0  0  0  0  0  0
    1.6603    0.0473    1.5354 O   0  0  0  0  0  0  0  0  0  0  0  0
    0.8010   -3.2229   -0.6123 C   0  0  0  0  0  0  0  0  0  0  0  0
   -0.4239   -3.8632   -0.6494 C   0  0  0  0  0  0  0  0  0  0  0  0
   -1.5896   -3.1570   -0.4137 C   0  0  0  0  0  0  0  0  0  0  0  0
   -3.5883   -2.4698    1.3951 H   0  0  0  0  0  0  0  0  0  0  0  0
   -5.1145   -0.7069    2.2775 H   0  0  0  0  0  0  0  0  0  0  0  0
   -5.8546   -1.5199    0.9284 H   0  0  0  0  0  0  0  0  0  0  0  0
   -7.1520    0.8052    1.3377 H   0  0  0  0  0  0  0  0  0  0  0  0
   -7.4791    2.9711    0.2128 H   0  0  0  0  0  0  0  0  0  0  0  0
   -3.6286    2.5766   -1.6140 H   0  0  0  0  0  0  0  0  0  0  0  0
   -0.2703   -0.0855    0.0938 H   0  0  0  0  0  0  0  0  0  0  0  0
    6.4310   -0.0508   -1.6088 H   0  0  0  0  0  0  0  0  0  0  0  0
    7.6339    2.9926   -0.3426 H   0  0  0  0  0  0  0  0  0  0  0  0
    8.3033    1.7431    0.6885 H   0  0  0  0  0  0  0  0  0  0  0  0
    8.1726    1.4615   -1.0561 H   0  0  0  0  0  0  0  0  0  0  0  0
    3.6147    1.7045    2.0632 H   0  0  0  0  0  0  0  0  0  0  0  0
    1.7182   -3.7561   -0.8007 H   0  0  0  0  0  0  0  0  0  0  0  0
   -0.4668   -4.9187   -0.8650 H   0  0  0  0  0  0  0  0  0  0  0  0
   -2.5431   -3.6592   -0.4592 H   0  0  0  0  0  0  0  0  0  0  0  0
  1  2  1  0  0  0  0
  2  3  1  0  0  0  0
  3  4  4  0  0  0  0
  4  5  4  0  0  0  0
  5  6  4  0  0  0  0
  6  7  1  0  0  0  0
  6  8  4  0  0  0  0
  3  9  4  0  0  0  0
  8  9  4  0  0  0  0
  9 10  1  0  0  0  0
 10 11  2  0  0  0  0
  1 12  2  0  0  0  0
 10 12  1  0  0  0  0
 12 13  1  0  0  0  0
 13 14  4  0  0  0  0
 14 15  4  0  0  0  0
 15 16  1  0  0  0  0
 16 17  1  0  0  0  0
 17 18  2  0  0  0  0
 18 19  1  0  0  0  0
 19 20  4  0  0  0  0
 20 21  4  0  0  0  0
 21 22  1  0  0  0  0
 21 23  4  0  0  0  0
 23 24  1  0  0  0  0
 23 25  4  0  0  0  0
 19 26  4  0  0  0  0
 25 26  4  0  0  0  0
 16 27  1  0  0  0  0
 26 27  1  0  0  0  0
 27 28  2  0  0  0  0
 15 29  4  0  0  0  0
 29 30  4  0  0  0  0
 13 31  4  0  0  0  0
 30 31  4  0  0  0  0
  1 32  1  0  0  0  0
  2 33  1  0  0  0  0
  2 34  1  0  0  0  0
  4 35  1  0  0  0  0
  5 36  1  0  0  0  0
  8 37  1  0  0  0  0
 14 38  1  0  0  0  0
 20 39  1  0  0  0  0
 22 40  1  0  0  0  0
 22 41  1  0  0  0  0
 22 42  1  0  0  0  0
 25 43  1  0  0  0  0
 29 44  1  0  0  0  0
 30 45  1  0  0  0  0
 31 46  1  0  0  0  0
M  END
